
 ===================================================
  XFOIL Version 6.99
  Copyright (C) 2000   Mark Drela, Harold Youngren

  This software comes with ABSOLUTELY NO WARRANTY,
    subject to the GNU General Public License.

  Caveat computor
 ===================================================

 File  xfoil.def  not found

   QUIT    Exit program

  .OPER    Direct operating point(s)
  .MDES    Complex mapping design routine
  .QDES    Surface speed design routine
  .GDES    Geometry design routine

   SAVE f  Write airfoil to labeled coordinate file
   PSAV f  Write airfoil to plain coordinate file
   ISAV f  Write airfoil to ISES coordinate file
   MSAV f  Write airfoil to MSES coordinate file
   REVE    Reverse written-airfoil node ordering

   LOAD f  Read buffer airfoil from coordinate file
   NACA i  Set NACA 4,5-digit airfoil and buffer airfoil
   INTE    Set buffer airfoil by interpolating two airfoils
   NORM    Buffer airfoil normalization toggle
   XYCM rr Change CM reference location, currently  0.25000 0.00000

   BEND    Display structural properties of current airfoil

   PCOP    Set current-airfoil panel nodes directly from buffer airfoil points
   PANE    Set current-airfoil panel nodes ( 160 ) based on curvature
  .PPAR    Show/change paneling

  .PLOP    Plotting options

   WDEF f  Write  current-settings file
   RDEF f  Reread current-settings file
   NAME s  Specify new airfoil name
   NINC    Increment name version number

   Z       Zoom    | (available in all menus)
   U       Unzoom  | 

 XFOIL   c>   Max thickness =     0.120035  at x =   0.300
 Max camber    =     0.049999  at x =   0.502

 Buffer airfoil set using 331 points

 Blunt trailing edge.  Gap =  0.00252

 Paneling parameters used...
   Number of panel nodes       160
   Panel bunching parameter    1.000
   TE/LE panel density ratio   0.150
   Refined-area/LE panel density ratio    0.200
   Top    side refined area x/c limits  1.000 1.000
   Bottom side refined area x/c limits  1.000 1.000

 XFOIL   c>  
.OPERi   c>   Current iteration limit:          10

Enter new iteration limit   i>  
.OPERi   c>  
 XFOIL   c>  
    Present paneling parameters...
  N  i   Number of panel nodes       160
  P  r   Panel bunching parameter    1.000
  T  r   TE/LE panel density ratio   0.150
  R  r   Refined area/LE  panel density ratio   0.200
  XT rr  Top    side refined area x/c limits    1.000 1.000
  XB rr  Bottom side refined area x/c limits    1.000 1.000
  Z oom
  U nzoom

Change what ? (<cr> if nothing else)   c>  
Enter number of panel nodes   i>  
Change what ? (<cr> if nothing else)   c>  
 Blunt trailing edge.  Gap =  0.00252

 Maximum panel corner angle =  4.241   at  i,x,y  = 159   0.0008  -0.0047

    Present paneling parameters...
  N  i   Number of panel nodes       300
  P  r   Panel bunching parameter    1.000
  T  r   TE/LE panel density ratio   0.150
  R  r   Refined area/LE  panel density ratio   0.200
  XT rr  Top    side refined area x/c limits    1.000 1.000
  XB rr  Bottom side refined area x/c limits    1.000 1.000
  Z oom
  U nzoom

Change what ? (<cr> if nothing else)   c>  
 XFOIL   c>  
 XFOIL   c>  
.OPERi   c>  
.OPERi   c>  
 Sonic Cp =    -31.18      Sonic Q/Qinf =     6.276


.OPERi   c>  
 M  =    0.1458
 Re =    844613

.OPERv   c>  
 Polar  1 newly created for accumulation
 Airfoil archived with polar: NACA 5512                                       

Enter  polar save filename  OR  <return> for no file   s>  
 Polar save file will NOT be written

Enter  polar dump filename  OR  <return> for no file   s>  
 Polar dump file will NOT be written

 Polar accumulation enabled

.OPERva   c>   Calculating unit vorticity distributions ...
 Calculating wake trajectory ...
 Array size (IWX) too small.  Last wake point index reduced.
 Calculating source influence matrix ...

 Solving BL system ...

 Initializing BL ...
    side            1  ...
 MRCHUE: Inverse mode at 108     Hk =   4.069
 MRCHUE: Inverse mode at 109     Hk =   4.512
 MRCHUE: Inverse mode at 110     Hk =   4.951
 MRCHUE: Inverse mode at 111     Hk =   5.385
 MRCHUE: Inverse mode at 112     Hk =   5.817
 MRCHUE: Inverse mode at 113     Hk =   6.247
 MRCHUE: Inverse mode at 114     Hk =   6.674
 MRCHUE: Inverse mode at 115     Hk =   7.100
 MRCHUE: Inverse mode at 116     Hk =   7.524
 MRCHUE: Inverse mode at 117     Hk =   7.947
 MRCHUE: Inverse mode at 118     Hk =   7.850
 MRCHUE: Inverse mode at 119     Hk =   5.912
 MRCHUE: Inverse mode at 120     Hk =   4.602
 MRCHUE: Inverse mode at 121     Hk =   3.615
 MRCHUE: Inverse mode at 122     Hk =   2.833
    side            2  ...
 MRCHUE: Inverse mode at  38     Hk =   4.055
 MRCHUE: Inverse mode at  39     Hk =   4.667
 MRCHUE: Inverse mode at  40     Hk =   5.285
 MRCHUE: Inverse mode at  41     Hk =   5.914
 MRCHUE: Inverse mode at  42     Hk =   6.559
 MRCHUE: Inverse mode at  43     Hk =   7.227
 MRCHUE: Inverse mode at  44     Hk =   7.921
 MRCHUE: Inverse mode at  45     Hk =   8.645
 MRCHUE: Inverse mode at  46     Hk =   9.405
 MRCHUE: Inverse mode at  47     Hk =   6.570
 MRCHUE: Inverse mode at  48     Hk =   4.055
 MRCHUE: Inverse mode at  49     Hk =   2.500

 Side 1  free  transition at x/c =  0.8184  118
 Side 2  free  transition at x/c =  0.0452   47

   1   rms: 0.1459E+00   max: -.1173E+01   T at  118  1   RLX: 0.426
       a = -5.000      CL =  0.0666
      Cm = -0.1516     CD =  0.01033   =>   CDf =  0.00590    CDp =  0.00443

 MRCHDU: Convergence failed at 120  side 1    Res =  0.6629E+01
 MRCHDU: Convergence failed at 121  side 1    Res =  0.1458E+02
 MRCHDU: Convergence failed at 122  side 1    Res =  0.9449E+01
 Side 1  free  transition at x/c =  0.8342  120
 Side 2  free  transition at x/c =  0.0468   47

   2   rms: 0.8902E-01   max: -.7035E+00   T at   47  2   RLX: 0.711
       a = -5.000      CL =  0.0704
      Cm = -0.1526     CD =  0.00907   =>   CDf =  0.00562    CDp =  0.00345

 MRCHDU: Convergence failed at  49  side 2    Res =  0.2285E+01
 MRCHDU: Convergence failed at  50  side 2    Res =  0.6512E+01
 MRCHDU: Convergence failed at  51  side 2    Res =  0.1614E+01
 MRCHDU: Convergence failed at  52  side 2    Res =  0.1588E+01
 MRCHDU: Convergence failed at  53  side 2    Res =  0.1694E+01
 MRCHDU: Convergence failed at  54  side 2    Res =  0.1770E+01
 MRCHDU: Convergence failed at  55  side 2    Res =  0.1940E+01
 MRCHDU: Convergence failed at  56  side 2    Res =  0.2128E+01
 MRCHDU: Convergence failed at  57  side 2    Res =  0.2395E+01
 MRCHDU: Convergence failed at  58  side 2    Res =  0.2684E+01
 MRCHDU: Convergence failed at  59  side 2    Res =  0.3051E+01
 MRCHDU: Convergence failed at  60  side 2    Res =  0.3440E+01
 MRCHDU: Convergence failed at  61  side 2    Res =  0.3894E+01
 MRCHDU: Convergence failed at  62  side 2    Res =  0.4273E+01
 MRCHDU: Convergence failed at  63  side 2    Res =  0.4730E+01
 MRCHDU: Convergence failed at  64  side 2    Res =  0.5005E+01
 MRCHDU: Convergence failed at  65  side 2    Res =  0.5177E+01
 MRCHDU: Convergence failed at  66  side 2    Res =  0.5493E+01
 MRCHDU: Convergence failed at  67  side 2    Res =  0.5748E+01
 MRCHDU: Convergence failed at  68  side 2    Res =  0.5964E+01
 MRCHDU: Convergence failed at  69  side 2    Res =  0.5618E+01
 MRCHDU: Convergence failed at  70  side 2    Res =  0.5702E+01
 MRCHDU: Convergence failed at  71  side 2    Res =  0.4964E+01
 MRCHDU: Convergence failed at  72  side 2    Res =  0.4983E+01
 MRCHDU: Convergence failed at  73  side 2    Res =  0.3433E+02
 MRCHDU: Convergence failed at  74  side 2    Res =  0.4038E+02
 MRCHDU: Convergence failed at  75  side 2    Res =  0.4777E+02
 MRCHDU: Convergence failed at  76  side 2    Res =  0.1702E+02
 MRCHDU: Convergence failed at  77  side 2    Res =  0.1903E+02
 MRCHDU: Convergence failed at  78  side 2    Res =  0.2095E+02
 MRCHDU: Convergence failed at  79  side 2    Res =  0.2902E+02
 MRCHDU: Convergence failed at  80  side 2    Res =  0.2654E+02
 MRCHDU: Convergence failed at  81  side 2    Res =  0.3160E+02
 MRCHDU: Convergence failed at  82  side 2    Res =  0.2569E+02
 MRCHDU: Convergence failed at  83  side 2    Res =  0.2465E+02
 MRCHDU: Convergence failed at  84  side 2    Res =  0.2410E+02
 MRCHDU: Convergence failed at  85  side 2    Res =  0.2753E+02
 MRCHDU: Convergence failed at  86  side 2    Res =  0.3042E+02
 MRCHDU: Convergence failed at  87  side 2    Res =  0.3220E+02
 MRCHDU: Convergence failed at  88  side 2    Res =  0.3408E+02
 MRCHDU: Convergence failed at  89  side 2    Res =  0.1426E+02
 MRCHDU: Convergence failed at  90  side 2    Res =  0.1449E+02
 MRCHDU: Convergence failed at  91  side 2    Res =  0.1472E+02
 MRCHDU: Convergence failed at  92  side 2    Res =  0.1495E+02
 MRCHDU: Convergence failed at  93  side 2    Res =  0.1517E+02
 MRCHDU: Convergence failed at  94  side 2    Res =  0.1536E+02
 MRCHDU: Convergence failed at  95  side 2    Res =  0.1553E+02
 MRCHDU: Convergence failed at  96  side 2    Res =  0.1573E+02
 MRCHDU: Convergence failed at  97  side 2    Res =  0.1585E+02
 MRCHDU: Convergence failed at  98  side 2    Res =  0.1598E+02
 MRCHDU: Convergence failed at  99  side 2    Res =  0.5583E+02
 MRCHDU: Convergence failed at 100  side 2    Res =  0.5948E+02
 MRCHDU: Convergence failed at 101  side 2    Res =  0.6280E+02
 MRCHDU: Convergence failed at 102  side 2    Res =  0.6617E+02
 MRCHDU: Convergence failed at 103  side 2    Res =  0.6910E+02
 MRCHDU: Convergence failed at 104  side 2    Res =  0.7225E+02
 MRCHDU: Convergence failed at 105  side 2    Res =  0.6391E+02
 MRCHDU: Convergence failed at 106  side 2    Res =  0.6713E+02
 MRCHDU: Convergence failed at 107  side 2    Res =  0.7060E+02
 MRCHDU: Convergence failed at 108  side 2    Res =  0.7442E+02
 MRCHDU: Convergence failed at 109  side 2    Res =  0.7866E+02
 MRCHDU: Convergence failed at 110  side 2    Res =  0.4405E+02
 MRCHDU: Convergence failed at 111  side 2    Res =  0.4554E+02
 MRCHDU: Convergence failed at 112  side 2    Res =  0.4671E+02
 MRCHDU: Convergence failed at 113  side 2    Res =  0.4786E+02
 MRCHDU: Convergence failed at 114  side 2    Res =  0.4926E+02
 MRCHDU: Convergence failed at 115  side 2    Res =  0.5043E+02
 MRCHDU: Convergence failed at 116  side 2    Res =  0.5143E+02
 MRCHDU: Convergence failed at 117  side 2    Res =  0.5273E+02
 MRCHDU: Convergence failed at 118  side 2    Res =  0.5371E+02
 MRCHDU: Convergence failed at 119  side 2    Res =  0.5481E+02
 MRCHDU: Convergence failed at 120  side 2    Res =  0.5585E+02
 MRCHDU: Convergence failed at 121  side 2    Res =  0.5692E+02
 MRCHDU: Convergence failed at 122  side 2    Res =  0.5777E+02
 MRCHDU: Convergence failed at 123  side 2    Res =  0.5886E+02
 MRCHDU: Convergence failed at 124  side 2    Res =  0.5981E+02
 MRCHDU: Convergence failed at 125  side 2    Res =  0.6044E+02
 MRCHDU: Convergence failed at 126  side 2    Res =  0.6157E+02
 MRCHDU: Convergence failed at 127  side 2    Res =  0.6208E+02
 MRCHDU: Convergence failed at 128  side 2    Res =  0.6284E+02
 MRCHDU: Convergence failed at 129  side 2    Res =  0.6347E+02
 MRCHDU: Convergence failed at 130  side 2    Res =  0.6431E+02
 MRCHDU: Convergence failed at 131  side 2    Res =  0.6477E+02
 MRCHDU: Convergence failed at 132  side 2    Res =  0.6595E+02
 MRCHDU: Convergence failed at 133  side 2    Res =  0.6571E+02
 MRCHDU: Convergence failed at 134  side 2    Res =  0.6632E+02
 MRCHDU: Convergence failed at 135  side 2    Res =  0.6682E+02
 MRCHDU: Convergence failed at 136  side 2    Res =  0.6748E+02
 MRCHDU: Convergence failed at 137  side 2    Res =  0.6759E+02
 MRCHDU: Convergence failed at 138  side 2    Res =  0.6842E+02
 MRCHDU: Convergence failed at 139  side 2    Res =  0.6861E+02
 MRCHDU: Convergence failed at 140  side 2    Res =  0.3564E+02
 MRCHDU: Convergence failed at 141  side 2    Res =  0.3605E+02
 MRCHDU: Convergence failed at 142  side 2    Res =  0.3631E+02
 MRCHDU: Convergence failed at 143  side 2    Res =  0.3659E+02
 MRCHDU: Convergence failed at 144  side 2    Res =  0.3697E+02
 MRCHDU: Convergence failed at 145  side 2    Res =  0.3729E+02
 MRCHDU: Convergence failed at 146  side 2    Res =  0.3757E+02
 MRCHDU: Convergence failed at 147  side 2    Res =  0.3799E+02
 MRCHDU: Convergence failed at 148  side 2    Res =  0.3853E+02
 MRCHDU: Convergence failed at 149  side 2    Res =  0.3907E+02
 MRCHDU: Convergence failed at 150  side 2    Res =  0.3979E+02
 MRCHDU: Convergence failed at 151  side 2    Res =  0.4060E+02
 MRCHDU: Convergence failed at 152  side 2    Res =  0.4178E+02
 MRCHDU: Convergence failed at 153  side 2    Res =  0.4322E+02
 MRCHDU: Convergence failed at 154  side 2    Res =  0.4547E+02
 MRCHDU: Convergence failed at 155  side 2    Res =  0.4810E+02
 MRCHDU: Convergence failed at 156  side 2    Res =  0.5219E+02
 MRCHDU: Convergence failed at 157  side 2    Res =  0.4589E+02
 MRCHDU: Convergence failed at 158  side 2    Res =  0.5245E+02
 MRCHDU: Convergence failed at 159  side 2    Res =  0.8953E+02
 MRCHDU: Convergence failed at 160  side 2    Res =  0.1924E+03
 Side 1  free  transition at x/c =  0.8477  122
 Side 2  free  transition at x/c =  0.0515   48

   3   rms: 0.1250E+01   max: 0.3975E+01   D at  126  2   RLX: 0.377
       a = -5.000      CL = -0.6769
      Cm =  0.1018     CD =  0.00392   =>   CDf =  0.00226    CDp =  0.00165

 MRCHDU: Convergence failed at  73  side 2    Res =  0.8438E-01
 MRCHDU: Convergence failed at  94  side 2    Res =  0.6090E-01
 MRCHDU: Convergence failed at  95  side 2    Res =  0.1511E+01
 MRCHDU: Convergence failed at  96  side 2    Res =  0.1517E+01
 MRCHDU: Convergence failed at  97  side 2    Res =  0.1243E+01
 MRCHDU: Convergence failed at 115  side 2    Res =  0.1414E+00
 MRCHDU: Convergence failed at 116  side 2    Res =  0.1308E+00
 MRCHDU: Convergence failed at 117  side 2    Res =  0.1211E+00
 MRCHDU: Convergence failed at 118  side 2    Res =  0.1091E+00
 MRCHDU: Convergence failed at 119  side 2    Res =  0.9529E-01
 MRCHDU: Convergence failed at 120  side 2    Res =  0.4278E-03
 MRCHDU: Convergence failed at 158  side 2    Res =  0.3386E-01
 MRCHDU: Convergence failed at 159  side 2    Res =  0.1827E-02
 Side 1  free  transition at x/c =  0.8543  123
 Side 2  free  transition at x/c =  0.0500   48

   4   rms: 0.3932E+00   max: -.1451E+01   D at   73  2   RLX: 0.345
       a = -5.000      CL = -0.2181
      Cm = -0.0509     CD =  0.01690   =>   CDf =  0.00425    CDp =  0.01265

 MRCHDU: Convergence failed at  73  side 2    Res =  0.1316E+00
 MRCHDU: Convergence failed at  74  side 2    Res =  0.2605E+00
 MRCHDU: Convergence failed at  94  side 2    Res =  0.1949E+00
 MRCHDU: Convergence failed at  95  side 2    Res =  0.1477E+00
 MRCHDU: Convergence failed at  96  side 2    Res =  0.1362E+00
 MRCHDU: Convergence failed at  97  side 2    Res =  0.1557E+00
 MRCHDU: Convergence failed at 119  side 2    Res =  0.3455E+00
 MRCHDU: Convergence failed at 120  side 2    Res =  0.5555E+00
 MRCHDU: Convergence failed at 121  side 2    Res =  0.7789E-02
 MRCHDU: Convergence failed at 122  side 2    Res =  0.1422E-03
 MRCHDU: Convergence failed at 158  side 2    Res =  0.4087E+00
 MRCHDU: Convergence failed at 159  side 2    Res =  0.6640E+00
 MRCHDU: Convergence failed at 160  side 2    Res =  0.1347E+00
 Side 1  free  transition at x/c =  0.8573  123
 Side 2  free  transition at x/c =  0.0513   48

   5   rms: 0.4521E+00   max: -.2789E+01   D at   75  2   RLX: 0.179
       a = -5.000      CL = -0.0666
      Cm = -0.1072     CD =  0.01964   =>   CDf =  0.00389    CDp =  0.01576

 MRCHDU: Convergence failed at 121  side 2    Res =  0.8089E-01
 Side 1  free  transition at x/c =  0.8569  123
 Side 2  free  transition at x/c =  0.0516   48

   6   rms: 0.7852E+00   max: -.5651E+01   D at   75  2   RLX: 0.088
       a = -5.000      CL = -0.0531
      Cm = -0.1135     CD =  0.01970   =>   CDf =  0.00409    CDp =  0.01561

 MRCHDU: Convergence failed at 121  side 2    Res =  0.9212E-01
 MRCHDU: Convergence failed at 122  side 2    Res =  0.6540E-03
 Side 1  free  transition at x/c =  0.8564  123
 Side 2  free  transition at x/c =  0.0516   48

   7   rms: 0.3553E+00   max: -.1762E+01   D at   71  2   RLX: 0.284
       a = -5.000      CL = -0.0306
      Cm = -0.1242     CD =  0.01717   =>   CDf =  0.00429    CDp =  0.01288

 MRCHDU: Convergence failed at 121  side 2    Res =  0.7104E-01
 Side 1  free  transition at x/c =  0.8555  123
 Side 2  free  transition at x/c =  0.0515   48
 idif Ue xi dudx           1  6.84420019E-02  1.59072876E-03   43.025562    
 Uenew xinew           2  6.55492162E-03  1.52349472E-04

   8   rms: 0.3447E+00   max: -.1245E+01   D at   72  2   RLX: 0.402
       a = -5.000      CL =  0.0014
      Cm = -0.1391     CD =  0.01415   =>   CDf =  0.00420    CDp =  0.00995

 Side 1  free  transition at x/c =  0.8539  122
 Side 2  free  transition at x/c =  0.0512   49

   9   rms: 0.4255E+00   max: -.1664E+01   D at   89  2   RLX: 0.300
       a = -5.000      CL =  0.0238
      Cm = -0.1501     CD =  0.01235   =>   CDf =  0.00430    CDp =  0.00804

 Side 1  free  transition at x/c =  0.8527  121
 Side 2  free  transition at x/c =  0.0509   49

  10   rms: 0.5330E+00   max: -.2599E+01   D at   88  2   RLX: 0.192
       a = -5.000      CL =  0.0190
      Cm = -0.1501     CD =  0.01104   =>   CDf =  0.00443    CDp =  0.00661

 MRCHDU: Convergence failed at  82  side 2    Res =  0.5089E+00
 Side 1  free  transition at x/c =  0.8514  121
 Side 2  free  transition at x/c =  0.0505   49

  11   rms: 0.4586E+00   max: -.2250E+01   D at  108  2   RLX: 0.222
       a = -5.000      CL =  0.0255
      Cm = -0.1508     CD =  0.00995   =>   CDf =  0.00470    CDp =  0.00525

 Side 1  free  transition at x/c =  0.8527  121
 Side 2  free  transition at x/c =  0.0510   49

  12   rms: 0.4690E+00   max: -.2018E+01   D at  115  2   RLX: 0.248
       a = -5.000      CL =  0.0328
      Cm = -0.1527     CD =  0.00910   =>   CDf =  0.00484    CDp =  0.00426

 MRCHDU: Convergence failed at 101  side 2    Res =  0.2225E+00
 Side 1  free  transition at x/c =  0.8526  121
 Side 2  free  transition at x/c =  0.0512   49

  13   rms: 0.3767E+00   max: -.1570E+01   D at  133  2   RLX: 0.318
       a = -5.000      CL =  0.0334
      Cm = -0.1522     CD =  0.00853   =>   CDf =  0.00523    CDp =  0.00331

 MRCHDU: Convergence failed at 124  side 2    Res =  0.9193E+00
 Side 1  free  transition at x/c =  0.8521  121
 Side 2  free  transition at x/c =  0.0512   49

  14   rms: 0.1600E+00   max: -.5060E+00   D at  157  2   RLX: 0.717
       a = -5.000      CL =  0.0666
      Cm = -0.1536     CD =  0.00869   =>   CDf =  0.00567    CDp =  0.00301

 Side 1  free  transition at x/c =  0.8555  123
 Side 2  free  transition at x/c =  0.0528   49

  15   rms: 0.5197E-01   max: -.1800E+00   D at  156  2
       a = -5.000      CL =  0.0836
      Cm = -0.1546     CD =  0.00882   =>   CDf =  0.00566    CDp =  0.00316

 Side 1  free  transition at x/c =  0.8563  123
 Side 2  free  transition at x/c =  0.0538   49

  16   rms: 0.3868E-02   max: -.4816E-01   D at  113  2
       a = -5.000      CL =  0.0837
      Cm = -0.1546     CD =  0.00886   =>   CDf =  0.00565    CDp =  0.00320

 Side 1  free  transition at x/c =  0.8564  123
 Side 2  free  transition at x/c =  0.0537   49

  17   rms: 0.5502E-04   max: -.1078E-02   D at  113  2
       a = -5.000      CL =  0.0837
      Cm = -0.1546     CD =  0.00886   =>   CDf =  0.00565    CDp =  0.00320
 plradd ia,ip,cpol            1         141  7.13961059E-03

 Point added to stored polar  1
 Save file unspecified or not available
 Dump file unspecified or not available

.OPERva   c>  
.OPERva   c>  
.OPERva   c>   Calculating wake trajectory ...
 Array size (IWX) too small.  Last wake point index reduced.
 Calculating source influence matrix ...

 Solving BL system ...

 Side 1  free  transition at x/c =  0.8564  123
 Side 2  free  transition at x/c =  0.0537   49

   1   rms: 0.1915E+00   max: -.1411E+01   T at   49  2   RLX: 0.354
       a = -4.000      CL =  0.1244
      Cm = -0.1547     CD =  0.00858   =>   CDf =  0.00569    CDp =  0.00288

 Side 1  free  transition at x/c =  0.8491  123
 Side 2  free  transition at x/c =  0.0594   49

   2   rms: 0.1210E+00   max: -.9291E+00   T at   49  2   RLX: 0.538
       a = -4.000      CL =  0.1643
      Cm = -0.1547     CD =  0.00841   =>   CDf =  0.00573    CDp =  0.00269

 Side 1  free  transition at x/c =  0.8397  123
 Side 2  free  transition at x/c =  0.0659   49

   3   rms: 0.6217E-01   max: -.6375E+00   T at   49  2   RLX: 0.784
       a = -4.000      CL =  0.1916
      Cm = -0.1547     CD =  0.00840   =>   CDf =  0.00576    CDp =  0.00264

 MRCHDU: Convergence failed at  51  side 2    Res =  0.1680E+01
 MRCHDU: Convergence failed at  52  side 2    Res =  0.1567E+02
 MRCHDU: Convergence failed at  53  side 2    Res =  0.7316E+01
 MRCHDU: Convergence failed at  54  side 2    Res =  0.5989E+01
 MRCHDU: Convergence failed at  55  side 2    Res =  0.6960E+01
 MRCHDU: Convergence failed at  56  side 2    Res =  0.9363E+01
 MRCHDU: Convergence failed at  57  side 2    Res =  0.1445E+02
 MRCHDU: Convergence failed at  58  side 2    Res =  0.2739E+02
 MRCHDU: Convergence failed at  59  side 2    Res =  0.7106E+02
 MRCHDU: Convergence failed at  60  side 2    Res =  0.2280E+03
 MRCHDU: Convergence failed at  61  side 2    Res =  0.5244E+02
 MRCHDU: Convergence failed at  62  side 2    Res =  0.3267E+02
 MRCHDU: Convergence failed at  63  side 2    Res =  0.2454E+02
 MRCHDU: Convergence failed at  64  side 2    Res =  0.1999E+02
 MRCHDU: Convergence failed at  65  side 2    Res =  0.1760E+02
 MRCHDU: Convergence failed at  66  side 2    Res =  0.1600E+02
 MRCHDU: Convergence failed at  67  side 2    Res =  0.1452E+02
 MRCHDU: Convergence failed at  68  side 2    Res =  0.1329E+02
 MRCHDU: Convergence failed at  69  side 2    Res =  0.1258E+02
 MRCHDU: Convergence failed at  70  side 2    Res =  0.1176E+02
 MRCHDU: Convergence failed at  71  side 2    Res =  0.1105E+02
 MRCHDU: Convergence failed at  72  side 2    Res =  0.1063E+02
 MRCHDU: Convergence failed at  73  side 2    Res =  0.1000E+02
 MRCHDU: Convergence failed at  74  side 2    Res =  0.9722E+01
 MRCHDU: Convergence failed at  75  side 2    Res =  0.9400E+01
 MRCHDU: Convergence failed at  76  side 2    Res =  0.9087E+01
 MRCHDU: Convergence failed at  77  side 2    Res =  0.8213E+01
 MRCHDU: Convergence failed at  78  side 2    Res =  0.8778E+01
 MRCHDU: Convergence failed at  79  side 2    Res =  0.9191E+01
 MRCHDU: Convergence failed at  80  side 2    Res =  0.9778E+01
 MRCHDU: Convergence failed at  81  side 2    Res =  0.1036E+02
 MRCHDU: Convergence failed at  82  side 2    Res =  0.1079E+02
 MRCHDU: Convergence failed at  83  side 2    Res =  0.1125E+02
 MRCHDU: Convergence failed at  84  side 2    Res =  0.1182E+02
 MRCHDU: Convergence failed at  85  side 2    Res =  0.1224E+02
 MRCHDU: Convergence failed at  86  side 2    Res =  0.1267E+02
 MRCHDU: Convergence failed at  87  side 2    Res =  0.1308E+02
 MRCHDU: Convergence failed at  88  side 2    Res =  0.1345E+02
 MRCHDU: Convergence failed at  89  side 2    Res =  0.1375E+02
 MRCHDU: Convergence failed at  90  side 2    Res =  0.1417E+02
 MRCHDU: Convergence failed at  91  side 2    Res =  0.1455E+02
 MRCHDU: Convergence failed at  92  side 2    Res =  0.1497E+02
 MRCHDU: Convergence failed at  93  side 2    Res =  0.1534E+02
 MRCHDU: Convergence failed at  94  side 2    Res =  0.1567E+02
 MRCHDU: Convergence failed at  95  side 2    Res =  0.1605E+02
 MRCHDU: Convergence failed at  96  side 2    Res =  0.1643E+02
 MRCHDU: Convergence failed at  97  side 2    Res =  0.1679E+02
 MRCHDU: Convergence failed at  98  side 2    Res =  0.1721E+02
 MRCHDU: Convergence failed at  99  side 2    Res =  0.1680E+02
 MRCHDU: Convergence failed at 100  side 2    Res =  0.1786E+02
 MRCHDU: Convergence failed at 101  side 2    Res =  0.1820E+02
 MRCHDU: Convergence failed at 102  side 2    Res =  0.1856E+02
 MRCHDU: Convergence failed at 103  side 2    Res =  0.1869E+02
 MRCHDU: Convergence failed at 104  side 2    Res =  0.2462E+02
 MRCHDU: Convergence failed at 105  side 2    Res =  0.2591E+02
 MRCHDU: Convergence failed at 106  side 2    Res =  0.1047E+02
 MRCHDU: Convergence failed at 107  side 2    Res =  0.1041E+02
 MRCHDU: Convergence failed at 108  side 2    Res =  0.1034E+02
 MRCHDU: Convergence failed at 109  side 2    Res =  0.1030E+02
 MRCHDU: Convergence failed at 110  side 2    Res =  0.2320E+02
 MRCHDU: Convergence failed at 111  side 2    Res =  0.2383E+02
 MRCHDU: Convergence failed at 112  side 2    Res =  0.1013E+02
 MRCHDU: Convergence failed at 113  side 2    Res =  0.1284E+02
 MRCHDU: Convergence failed at 114  side 2    Res =  0.2550E+02
 MRCHDU: Convergence failed at 115  side 2    Res =  0.2613E+02
 MRCHDU: Convergence failed at 116  side 2    Res =  0.2712E+02
 MRCHDU: Convergence failed at 117  side 2    Res =  0.2776E+02
 MRCHDU: Convergence failed at 118  side 2    Res =  0.2842E+02
 MRCHDU: Convergence failed at 119  side 2    Res =  0.2919E+02
 MRCHDU: Convergence failed at 120  side 2    Res =  0.3008E+02
 MRCHDU: Convergence failed at 121  side 2    Res =  0.3100E+02
 MRCHDU: Convergence failed at 122  side 2    Res =  0.3198E+02
 MRCHDU: Convergence failed at 123  side 2    Res =  0.3300E+02
 MRCHDU: Convergence failed at 124  side 2    Res =  0.3406E+02
 MRCHDU: Convergence failed at 125  side 2    Res =  0.3520E+02
 MRCHDU: Convergence failed at 126  side 2    Res =  0.1391E+02
 MRCHDU: Convergence failed at 127  side 2    Res =  0.1368E+02
 MRCHDU: Convergence failed at 128  side 2    Res =  0.1390E+02
 MRCHDU: Convergence failed at 129  side 2    Res =  0.1458E+02
 MRCHDU: Convergence failed at 130  side 2    Res =  0.3369E+02
 MRCHDU: Convergence failed at 131  side 2    Res =  0.3402E+02
 MRCHDU: Convergence failed at 132  side 2    Res =  0.3438E+02
 MRCHDU: Convergence failed at 133  side 2    Res =  0.3478E+02
 MRCHDU: Convergence failed at 134  side 2    Res =  0.3513E+02
 MRCHDU: Convergence failed at 135  side 2    Res =  0.3545E+02
 MRCHDU: Convergence failed at 136  side 2    Res =  0.3580E+02
 MRCHDU: Convergence failed at 137  side 2    Res =  0.3611E+02
 MRCHDU: Convergence failed at 138  side 2    Res =  0.3624E+02
 MRCHDU: Convergence failed at 139  side 2    Res =  0.1172E+02
 MRCHDU: Convergence failed at 140  side 2    Res =  0.1159E+02
 MRCHDU: Convergence failed at 141  side 2    Res =  0.1150E+02
 MRCHDU: Convergence failed at 142  side 2    Res =  0.1143E+02
 MRCHDU: Convergence failed at 143  side 2    Res =  0.2309E+02
 MRCHDU: Convergence failed at 144  side 2    Res =  0.2307E+02
 MRCHDU: Convergence failed at 145  side 2    Res =  0.2307E+02
 MRCHDU: Convergence failed at 146  side 2    Res =  0.2317E+02
 MRCHDU: Convergence failed at 147  side 2    Res =  0.2323E+02
 MRCHDU: Convergence failed at 148  side 2    Res =  0.2341E+02
 MRCHDU: Convergence failed at 149  side 2    Res =  0.2351E+02
 MRCHDU: Convergence failed at 150  side 2    Res =  0.2378E+02
 MRCHDU: Convergence failed at 151  side 2    Res =  0.2410E+02
 MRCHDU: Convergence failed at 152  side 2    Res =  0.2461E+02
 MRCHDU: Convergence failed at 153  side 2    Res =  0.2512E+02
 MRCHDU: Convergence failed at 154  side 2    Res =  0.2589E+02
 MRCHDU: Convergence failed at 155  side 2    Res =  0.2673E+02
 MRCHDU: Convergence failed at 156  side 2    Res =  0.2767E+02
 MRCHDU: Convergence failed at 157  side 2    Res =  0.2880E+02
 MRCHDU: Convergence failed at 158  side 2    Res =  0.2736E+02
 Side 1  free  transition at x/c =  0.8349  122
 Side 2  free  transition at x/c =  0.0740   51

   4   rms: 0.6451E+00   max: 0.5557E+00   D at  165  2   RLX: 0.746
       a = -4.000      CL =  0.0062
      Cm = -0.0873     CD =  0.00510   =>   CDf =  0.00239    CDp =  0.00271

 Side 1  free  transition at x/c =  0.8360  123
 Side 2  free  transition at x/c =  0.0779   50

   5   rms: 0.1420E+00   max: 0.2421E+00   D at  160  2
       a = -4.000      CL =  0.1983
      Cm = -0.1549     CD =  0.00793   =>   CDf =  0.00659    CDp =  0.00135

 Side 1  free  transition at x/c =  0.8337  123
 Side 2  free  transition at x/c =  0.0774   50

   6   rms: 0.1742E-02   max: -.2336E-01   D at  160  2
       a = -4.000      CL =  0.1990
      Cm = -0.1549     CD =  0.00819   =>   CDf =  0.00570    CDp =  0.00248

 Side 1  free  transition at x/c =  0.8340  123
 Side 2  free  transition at x/c =  0.0773   50

   7   rms: 0.1600E-04   max: -.3467E-03   D at  160  2
       a = -4.000      CL =  0.1990
      Cm = -0.1549     CD =  0.00819   =>   CDf =  0.00570    CDp =  0.00248
 plradd ia,ip,cpol            2         144  8.24704673E-03

 Point added to stored polar  1
 Save file unspecified or not available
 Dump file unspecified or not available

.OPERva   c>  
.OPERva   c>  
.OPERva   c>   Calculating wake trajectory ...
 Array size (IWX) too small.  Last wake point index reduced.
 Calculating source influence matrix ...

 Solving BL system ...

 Side 1  free  transition at x/c =  0.8340  123
 Side 2  free  transition at x/c =  0.0773   50

   1   rms: 0.1772E+00   max: -.1279E+01   T at   50  2   RLX: 0.391
       a = -3.000      CL =  0.2439
      Cm = -0.1549     CD =  0.00805   =>   CDf =  0.00572    CDp =  0.00233

 Side 1  free  transition at x/c =  0.8233  123
 Side 2  free  transition at x/c =  0.0922   52

   2   rms: 0.1479E+00   max: -.1411E+01   T at    2  1   RLX: 0.354
       a = -3.000      CL =  0.2671
      Cm = -0.1550     CD =  0.00783   =>   CDf =  0.00574    CDp =  0.00209

 Side 1  free  transition at x/c =  0.8181  122
 Side 2  free  transition at x/c =  0.0986   53

   3   rms: 0.9930E-01   max: 0.7028E+00   D at   53  2   RLX: 0.775
       a = -3.000      CL =  0.3031
      Cm = -0.1552     CD =  0.00755   =>   CDf =  0.00575    CDp =  0.00179

 Side 1  free  transition at x/c =  0.8104  122
 Side 2  free  transition at x/c =  0.1115   53

   4   rms: 0.2501E-01   max: -.3510E+00   C at   53  2
       a = -3.000      CL =  0.3142
      Cm = -0.1552     CD =  0.00767   =>   CDf =  0.00572    CDp =  0.00195

 Side 1  free  transition at x/c =  0.8100  122
 Side 2  free  transition at x/c =  0.1195   54

   5   rms: 0.9098E-02   max: -.1892E+00   C at   54  2
       a = -3.000      CL =  0.3142
      Cm = -0.1552     CD =  0.00767   =>   CDf =  0.00568    CDp =  0.00199

 Side 1  free  transition at x/c =  0.8099  122
 Side 2  free  transition at x/c =  0.1212   55

   6   rms: 0.3082E-02   max: -.5738E-01   D at   54  2
       a = -3.000      CL =  0.3142
      Cm = -0.1552     CD =  0.00766   =>   CDf =  0.00567    CDp =  0.00199

 Side 1  free  transition at x/c =  0.8099  122
 Side 2  free  transition at x/c =  0.1213   55

   7   rms: 0.2839E-03   max: 0.5539E-02   C at   55  2
       a = -3.000      CL =  0.3142
      Cm = -0.1552     CD =  0.00766   =>   CDf =  0.00566    CDp =  0.00200

 Side 1  free  transition at x/c =  0.8099  122
 Side 2  free  transition at x/c =  0.1213   55

   8   rms: 0.1949E-05   max: -.9548E-05   D at    4  2
       a = -3.000      CL =  0.3142
      Cm = -0.1552     CD =  0.00766   =>   CDf =  0.00566    CDp =  0.00200
 plradd ia,ip,cpol            3         146  1.07028317E-02

 Point added to stored polar  1
 Save file unspecified or not available
 Dump file unspecified or not available

.OPERva   c>  
.OPERva   c>  
.OPERva   c>   Calculating wake trajectory ...
 Array size (IWX) too small.  Last wake point index reduced.
 Calculating source influence matrix ...

 Solving BL system ...

 Side 1  free  transition at x/c =  0.8099  122
 Side 2  free  transition at x/c =  0.1213   55

   1   rms: 0.2278E+00   max: -.2430E+01   C at   55  2   RLX: 0.206
       a = -2.000      CL =  0.3375
      Cm = -0.1553     CD =  0.00752   =>   CDf =  0.00566    CDp =  0.00185

 Side 1  free  transition at x/c =  0.8033  123
 Side 2  free  transition at x/c =  0.1288   55

   2   rms: 0.2090E+00   max: -.1539E+01   C at   55  2   RLX: 0.325
       a = -2.000      CL =  0.3675
      Cm = -0.1553     CD =  0.00741   =>   CDf =  0.00573    CDp =  0.00168

 Side 1  free  transition at x/c =  0.7980  122
 Side 2  free  transition at x/c =  0.1434   56

   3   rms: 0.1507E+00   max: -.3286E+01   C at   56  2   RLX: 0.152
       a = -2.000      CL =  0.3765
      Cm = -0.1555     CD =  0.00748   =>   CDf =  0.00565    CDp =  0.00183

 Side 1  free  transition at x/c =  0.7956  123
 Side 2  free  transition at x/c =  0.1450   56

   4   rms: 0.1294E+00   max: -.1161E+01   C at   56  2   RLX: 0.431
       a = -2.000      CL =  0.3993
      Cm = -0.1555     CD =  0.00733   =>   CDf =  0.00571    CDp =  0.00162

 Side 1  free  transition at x/c =  0.7910  122
 Side 2  free  transition at x/c =  0.1599   57

   5   rms: 0.9611E-01   max: -.2327E+01   C at   57  2   RLX: 0.215
       a = -2.000      CL =  0.4053
      Cm = -0.1555     CD =  0.00738   =>   CDf =  0.00562    CDp =  0.00176

 Side 1  free  transition at x/c =  0.7891  122
 Side 2  free  transition at x/c =  0.1617   58

   6   rms: 0.7674E-01   max: -.8379E+00   C at   58  2   RLX: 0.597
       a = -2.000      CL =  0.4195
      Cm = -0.1555     CD =  0.00725   =>   CDf =  0.00565    CDp =  0.00160

 Side 1  free  transition at x/c =  0.7857  122
 Side 2  free  transition at x/c =  0.1764   58

   7   rms: 0.3742E-01   max: -.8840E+00   C at   58  2   RLX: 0.566
       a = -2.000      CL =  0.4247
      Cm = -0.1555     CD =  0.00730   =>   CDf =  0.00560    CDp =  0.00170

 Side 1  free  transition at x/c =  0.7845  122
 Side 2  free  transition at x/c =  0.1815   59

   8   rms: 0.2359E-01   max: -.4830E+00   C at   59  2
       a = -2.000      CL =  0.4289
      Cm = -0.1555     CD =  0.00726   =>   CDf =  0.00559    CDp =  0.00167

 Side 1  free  transition at x/c =  0.7836  122
 Side 2  free  transition at x/c =  0.1897   60

   9   rms: 0.6202E-02   max: -.1439E+00   C at   60  2
       a = -2.000      CL =  0.4289
      Cm = -0.1555     CD =  0.00727   =>   CDf =  0.00555    CDp =  0.00172

 Side 1  free  transition at x/c =  0.7836  122
 Side 2  free  transition at x/c =  0.1916   60

  10   rms: 0.1323E-03   max: -.2286E-02   C at   60  2
       a = -2.000      CL =  0.4289
      Cm = -0.1555     CD =  0.00728   =>   CDf =  0.00554    CDp =  0.00174

 Side 1  free  transition at x/c =  0.7836  122
 Side 2  free  transition at x/c =  0.1916   60

  11   rms: 0.9739E-06   max: -.6104E-05   C at   60  2
       a = -2.000      CL =  0.4289
      Cm = -0.1555     CD =  0.00728   =>   CDf =  0.00554    CDp =  0.00174
 plradd ia,ip,cpol            4         149  1.66642908E-02

 Point added to stored polar  1
 Save file unspecified or not available
 Dump file unspecified or not available

.OPERva   c>  
.OPERva   c>  
.OPERva   c>   Calculating wake trajectory ...
 Array size (IWX) too small.  Last wake point index reduced.
 Calculating source influence matrix ...

 Solving BL system ...

 Side 1  free  transition at x/c =  0.7836  122
 Side 2  free  transition at x/c =  0.1916   60

   1   rms: 0.2194E+00   max: -.3383E+01   C at   60  2   RLX: 0.148
       a = -1.000      CL =  0.4457
      Cm = -0.1555     CD =  0.00722   =>   CDf =  0.00554    CDp =  0.00168

 Side 1  free  transition at x/c =  0.7788  122
 Side 2  free  transition at x/c =  0.2013   61

   2   rms: 0.1738E+00   max: -.2204E+01   C at   61  2   RLX: 0.227
       a = -1.000      CL =  0.4680
      Cm = -0.1555     CD =  0.00724   =>   CDf =  0.00554    CDp =  0.00170

 Side 1  free  transition at x/c =  0.7744  122
 Side 2  free  transition at x/c =  0.2129   61

   3   rms: 0.1150E+00   max: -.6817E+00   T at   61  2   RLX: 0.733
       a = -1.000      CL =  0.5234
      Cm = -0.1555     CD =  0.00721   =>   CDf =  0.00554    CDp =  0.00167

 Side 1  free  transition at x/c =  0.7581  121
 Side 2  free  transition at x/c =  0.2745   67

   4   rms: 0.4641E-01   max: 0.8184E+00   D at   60  2
       a = -1.000      CL =  0.5431
      Cm = -0.1556     CD =  0.00705   =>   CDf =  0.00551    CDp =  0.00154

 Side 1  free  transition at x/c =  0.7559  122
 Side 2  free  transition at x/c =  0.2870   68

   5   rms: 0.1130E-01   max: -.1707E+00   C at   68  2
       a = -1.000      CL =  0.5430
      Cm = -0.1557     CD =  0.00701   =>   CDf =  0.00538    CDp =  0.00162

 Side 1  free  transition at x/c =  0.7553  122
 Side 2  free  transition at x/c =  0.2885   68

   6   rms: 0.7503E-02   max: 0.1786E+00   C at   68  2
       a = -1.000      CL =  0.5431
      Cm = -0.1557     CD =  0.00702   =>   CDf =  0.00537    CDp =  0.00166

 Side 1  free  transition at x/c =  0.7553  122
 Side 2  free  transition at x/c =  0.2843   67

   7   rms: 0.4356E-03   max: -.1046E-01   C at   67  2
       a = -1.000      CL =  0.5431
      Cm = -0.1557     CD =  0.00703   =>   CDf =  0.00538    CDp =  0.00164

 Side 1  free  transition at x/c =  0.7553  122
 Side 2  free  transition at x/c =  0.2844   67

   8   rms: 0.2377E-05   max: 0.2034E-04   C at   67  2
       a = -1.000      CL =  0.5431
      Cm = -0.1557     CD =  0.00703   =>   CDf =  0.00538    CDp =  0.00164
 plradd ia,ip,cpol            5         152  0.33631331    

 Point added to stored polar  1
 Save file unspecified or not available
 Dump file unspecified or not available

.OPERva   c>  
.OPERva   c>  
.OPERva   c>   Calculating wake trajectory ...
 Array size (IWX) too small.  Last wake point index reduced.
 Calculating source influence matrix ...

 Solving BL system ...

 Side 1  free  transition at x/c =  0.7553  122
 Side 2  free  transition at x/c =  0.2844   67

   1   rms: 0.2017E+00   max: -.2745E+01   C at   67  2   RLX: 0.182
       a =  0.000      CL =  0.5637
      Cm = -0.1557     CD =  0.00702   =>   CDf =  0.00539    CDp =  0.00163

 Side 1  free  transition at x/c =  0.7502  121
 Side 2  free  transition at x/c =  0.3019   69

   2   rms: 0.1951E+00   max: -.3595E+01   C at   69  2   RLX: 0.139
       a =  0.000      CL =  0.5764
      Cm = -0.1556     CD =  0.00698   =>   CDf =  0.00536    CDp =  0.00162

 Side 1  free  transition at x/c =  0.7460  121
 Side 2  free  transition at x/c =  0.3110   70

   3   rms: 0.1477E+00   max: -.2172E+01   C at   70  2   RLX: 0.230
       a =  0.000      CL =  0.5949
      Cm = -0.1556     CD =  0.00700   =>   CDf =  0.00534    CDp =  0.00166

 Side 1  free  transition at x/c =  0.7415  121
 Side 2  free  transition at x/c =  0.3238   71

   4   rms: 0.1386E+00   max: -.2312E+01   C at   71  2   RLX: 0.216
       a =  0.000      CL =  0.6084
      Cm = -0.1556     CD =  0.00696   =>   CDf =  0.00536    CDp =  0.00160

 Side 1  free  transition at x/c =  0.7373  121
 Side 2  free  transition at x/c =  0.3318   72

   5   rms: 0.1160E+00   max: -.1765E+01   C at   72  2   RLX: 0.283
       a =  0.000      CL =  0.6222
      Cm = -0.1556     CD =  0.00697   =>   CDf =  0.00534    CDp =  0.00162

 Side 1  free  transition at x/c =  0.7341  121
 Side 2  free  transition at x/c =  0.3404   72

   6   rms: 0.1036E+00   max: -.1417E+01   C at   72  2   RLX: 0.353
       a =  0.000      CL =  0.6346
      Cm = -0.1557     CD =  0.00692   =>   CDf =  0.00538    CDp =  0.00154

 Side 1  free  transition at x/c =  0.7303  121
 Side 2  free  transition at x/c =  0.3501   73

   7   rms: 0.8204E-01   max: -.1343E+01   C at   73  2   RLX: 0.372
       a =  0.000      CL =  0.6429
      Cm = -0.1557     CD =  0.00693   =>   CDf =  0.00535    CDp =  0.00158

 Side 1  free  transition at x/c =  0.7283  121
 Side 2  free  transition at x/c =  0.3586   74

   8   rms: 0.6797E-01   max: -.1137E+01   C at   74  2   RLX: 0.440
       a =  0.000      CL =  0.6490
      Cm = -0.1557     CD =  0.00691   =>   CDf =  0.00534    CDp =  0.00158

 Side 1  free  transition at x/c =  0.7270  121
 Side 2  free  transition at x/c =  0.3683   75

   9   rms: 0.5263E-01   max: -.1008E+01   C at   75  2   RLX: 0.496
       a =  0.000      CL =  0.6527
      Cm = -0.1557     CD =  0.00691   =>   CDf =  0.00531    CDp =  0.00160

 Side 1  free  transition at x/c =  0.7263  120
 Side 2  free  transition at x/c =  0.3768   76

  10   rms: 0.3956E-01   max: -.7794E+00   C at   76  2   RLX: 0.642
       a =  0.000      CL =  0.6551
      Cm = -0.1557     CD =  0.00688   =>   CDf =  0.00528    CDp =  0.00160

 Side 1  free  transition at x/c =  0.7255  120
 Side 2  free  transition at x/c =  0.3861   77

  11   rms: 0.2433E-01   max: -.5251E+00   C at   77  2   RLX: 0.952
       a =  0.000      CL =  0.6562
      Cm = -0.1557     CD =  0.00687   =>   CDf =  0.00524    CDp =  0.00162

 Side 1  free  transition at x/c =  0.7251  120
 Side 2  free  transition at x/c =  0.3951   78

  12   rms: 0.9776E-02   max: -.2217E+00   C at   78  2
       a =  0.000      CL =  0.6562
      Cm = -0.1557     CD =  0.00688   =>   CDf =  0.00521    CDp =  0.00167

 Side 1  free  transition at x/c =  0.7251  120
 Side 2  free  transition at x/c =  0.3983   78

  13   rms: 0.2438E-03   max: -.4807E-02   D at   81  2
       a =  0.000      CL =  0.6562
      Cm = -0.1557     CD =  0.00688   =>   CDf =  0.00518    CDp =  0.00170

 Side 1  free  transition at x/c =  0.7251  120
 Side 2  free  transition at x/c =  0.3983   78

  14   rms: 0.2054E-05   max: 0.2842E-04   D at    4  2
       a =  0.000      CL =  0.6562
      Cm = -0.1557     CD =  0.00688   =>   CDf =  0.00518    CDp =  0.00170
 plradd ia,ip,cpol            6         154  0.31136140    

 Point added to stored polar  1
 Save file unspecified or not available
 Dump file unspecified or not available

.OPERva   c>  
.OPERva   c>  
.OPERva   c>   Calculating wake trajectory ...
 Array size (IWX) too small.  Last wake point index reduced.
 Calculating source influence matrix ...

 Solving BL system ...

 Side 1  free  transition at x/c =  0.7251  120
 Side 2  free  transition at x/c =  0.3983   78

   1   rms: 0.2535E+00   max: -.4567E+01   C at   78  2   RLX: 0.109
       a =  1.000      CL =  0.6685
      Cm = -0.1557     CD =  0.00686   =>   CDf =  0.00516    CDp =  0.00169

 Side 1  free  transition at x/c =  0.7209  121
 Side 2  free  transition at x/c =  0.4096   78

   2   rms: 0.1970E+00   max: -.3032E+01   C at   78  2   RLX: 0.165
       a =  1.000      CL =  0.6851
      Cm = -0.1556     CD =  0.00689   =>   CDf =  0.00518    CDp =  0.00171

 Side 1  free  transition at x/c =  0.7166  120
 Side 2  free  transition at x/c =  0.4260   80

   3   rms: 0.1947E+00   max: -.3597E+01   C at   80  2   RLX: 0.139
       a =  1.000      CL =  0.6968
      Cm = -0.1556     CD =  0.00686   =>   CDf =  0.00516    CDp =  0.00171

 Side 1  free  transition at x/c =  0.7126  120
 Side 2  free  transition at x/c =  0.4360   81

   4   rms: 0.1540E+00   max: -.2613E+01   C at   81  2   RLX: 0.191
       a =  1.000      CL =  0.7107
      Cm = -0.1556     CD =  0.00689   =>   CDf =  0.00512    CDp =  0.00177

 Side 1  free  transition at x/c =  0.7089  120
 Side 2  free  transition at x/c =  0.4489   81

   5   rms: 0.1080E+00   max: -.1532E+01   C at   81  2   RLX: 0.326
       a =  1.000      CL =  0.7299
      Cm = -0.1556     CD =  0.00689   =>   CDf =  0.00514    CDp =  0.00175

 Side 1  free  transition at x/c =  0.7022  120
 Side 2  free  transition at x/c =  0.4744   84

   6   rms: 0.1437E+00   max: -.3171E+01   C at   84  2   RLX: 0.158
       a =  1.000      CL =  0.7352
      Cm = -0.1553     CD =  0.00688   =>   CDf =  0.00508    CDp =  0.00180

 Side 1  free  transition at x/c =  0.7009  119
 Side 2  free  transition at x/c =  0.4806   85

   7   rms: 0.1082E+00   max: -.2300E+01   C at   85  2   RLX: 0.217
       a =  1.000      CL =  0.7428
      Cm = -0.1554     CD =  0.00686   =>   CDf =  0.00508    CDp =  0.00178

 Side 1  free  transition at x/c =  0.6988  119
 Side 2  free  transition at x/c =  0.4893   86

   8   rms: 0.8672E-01   max: -.1840E+01   C at   86  2   RLX: 0.272
       a =  1.000      CL =  0.7499
      Cm = -0.1555     CD =  0.00685   =>   CDf =  0.00502    CDp =  0.00183

 Side 1  free  transition at x/c =  0.6968  120
 Side 2  free  transition at x/c =  0.4999   86

   9   rms: 0.7824E-01   max: -.1751E+01   C at   86  2   RLX: 0.286
       a =  1.000      CL =  0.7553
      Cm = -0.1555     CD =  0.00684   =>   CDf =  0.00502    CDp =  0.00182

 Side 1  free  transition at x/c =  0.6954  120
 Side 2  free  transition at x/c =  0.5093   87

  10   rms: 0.6657E-01   max: -.1521E+01   C at   87  2   RLX: 0.329
       a =  1.000      CL =  0.7596
      Cm = -0.1555     CD =  0.00683   =>   CDf =  0.00500    CDp =  0.00183

 Side 1  free  transition at x/c =  0.6943  120
 Side 2  free  transition at x/c =  0.5186   88

  11   rms: 0.5186E-01   max: -.1196E+01   C at   88  2   RLX: 0.418
       a =  1.000      CL =  0.7632
      Cm = -0.1555     CD =  0.00682   =>   CDf =  0.00498    CDp =  0.00184

 Side 1  free  transition at x/c =  0.6935  120
 Side 2  free  transition at x/c =  0.5293   89

  12   rms: 0.3486E-01   max: -.8089E+00   C at   89  2   RLX: 0.618
       a =  1.000      CL =  0.7662
      Cm = -0.1554     CD =  0.00680   =>   CDf =  0.00495    CDp =  0.00185

 Side 1  free  transition at x/c =  0.6928  119
 Side 2  free  transition at x/c =  0.5432   91

  13   rms: 0.1834E-01   max: -.4284E+00   C at   91  2
       a =  1.000      CL =  0.7679
      Cm = -0.1554     CD =  0.00677   =>   CDf =  0.00492    CDp =  0.00185

 Side 1  free  transition at x/c =  0.6922  119
 Side 2  free  transition at x/c =  0.5540   92

  14   rms: 0.3277E-02   max: -.7687E-01   C at   92  2
       a =  1.000      CL =  0.7679
      Cm = -0.1554     CD =  0.00677   =>   CDf =  0.00489    CDp =  0.00189

 Side 1  free  transition at x/c =  0.6923  119
 Side 2  free  transition at x/c =  0.5559   92

  15   rms: 0.2516E-04   max: -.5491E-03   C at   92  2
       a =  1.000      CL =  0.7679
      Cm = -0.1554     CD =  0.00677   =>   CDf =  0.00488    CDp =  0.00189
 plradd ia,ip,cpol            7         157  0.26197490    

 Point added to stored polar  1
 Save file unspecified or not available
 Dump file unspecified or not available

.OPERva   c>  
.OPERva   c>  
.OPERva   c>   Calculating wake trajectory ...
 Array size (IWX) too small.  Last wake point index reduced.
 Calculating source influence matrix ...

 Solving BL system ...

 Side 1  free  transition at x/c =  0.6923  119
 Side 2  free  transition at x/c =  0.5559   92

   1   rms: 0.3103E+00   max: -.6167E+01   C at   92  2   RLX: 0.081
       a =  2.000      CL =  0.7769
      Cm = -0.1554     CD =  0.00675   =>   CDf =  0.00488    CDp =  0.00187

 Side 1  free  transition at x/c =  0.6889  119
 Side 2  free  transition at x/c =  0.5743   94

   2   rms: 0.2702E+00   max: -.5186E+01   C at   94  2   RLX: 0.096
       a =  2.000      CL =  0.7866
      Cm = -0.1553     CD =  0.00675   =>   CDf =  0.00484    CDp =  0.00191

 Side 1  free  transition at x/c =  0.6856  119
 Side 2  free  transition at x/c =  0.6006   97

   3   rms: 0.1865E+00   max: -.2481E+01   C at   97  2   RLX: 0.202
       a =  2.000      CL =  0.8047
      Cm = -0.1550     CD =  0.00678   =>   CDf =  0.00476    CDp =  0.00203

 Side 1  free  transition at x/c =  0.6804  119
 Side 2  free  transition at x/c =  0.6550  102

   4   rms: 0.1179E+00   max: -.4647E+00   T at  102  2
       a =  2.000      CL =  0.8793
      Cm = -0.1549     CD =  0.00683   =>   CDf =  0.00462    CDp =  0.00221

 Side 1  free  transition at x/c =  0.6529  118
 Side 2  free  transition at x/c =  0.7949  116

   5   rms: 0.3420E+00   max: -.7143E+01   C at  116  2   RLX: 0.070
       a =  2.000      CL =  0.8751
      Cm = -0.1534     CD =  0.00666   =>   CDf =  0.00445    CDp =  0.00222

 Side 1  free  transition at x/c =  0.6531  118
 Side 2  free  transition at x/c =  0.7988  117

   6   rms: 0.4193E+00   max: -.9025E+01   C at  117  2   RLX: 0.055
       a =  2.000      CL =  0.8748
      Cm = -0.1534     CD =  0.00664   =>   CDf =  0.00442    CDp =  0.00222

 Side 1  free  transition at x/c =  0.6533  118
 Side 2  free  transition at x/c =  0.8120  118

   7   rms: 0.9322E+00   max: -.1833E+02   C at  118  2   RLX: 0.027
       a =  2.000      CL =  0.8743
      Cm = -0.1533     CD =  0.00659   =>   CDf =  0.00435    CDp =  0.00224

 Side 1  free  transition at x/c =  0.6534  118
 Side 2  free  transition at x/c =  0.8259  120

   8   rms: 0.1084E+01   max: -.2171E+02   C at  120  2   RLX: 0.023
       a =  2.000      CL =  0.8736
      Cm = -0.1532     CD =  0.00655   =>   CDf =  0.00431    CDp =  0.00225

 Side 1  free  transition at x/c =  0.6535  118
 Side 2  free  transition at x/c =  0.8439  122

   9   rms: 0.1355E+01   max: -.2700E+02   C at  122  2   RLX: 0.019
       a =  2.000      CL =  0.8727
      Cm = -0.1530     CD =  0.00651   =>   CDf =  0.00426    CDp =  0.00225

 Side 1  free  transition at x/c =  0.6536  118
 Side 2  free  transition at x/c =  0.8632  124

  10   rms: 0.1677E+01   max: -.3301E+02   C at  124  2   RLX: 0.015
       a =  2.000      CL =  0.8717
      Cm = -0.1527     CD =  0.00647   =>   CDf =  0.00421    CDp =  0.00226

 Side 1  free  transition at x/c =  0.6537  118
 Side 2  free  transition at x/c =  0.8816  126

  11   rms: 0.1950E+01   max: -.3804E+02   C at  126  2   RLX: 0.013
       a =  2.000      CL =  0.8707
      Cm = -0.1525     CD =  0.00643   =>   CDf =  0.00417    CDp =  0.00226

 Side 1  free  transition at x/c =  0.6538  118
 Side 2  free  transition at x/c =  0.8997  128

  12   rms: 0.2311E+01   max: -.4443E+02   C at  128  2   RLX: 0.011
       a =  2.000      CL =  0.8698
      Cm = -0.1522     CD =  0.00640   =>   CDf =  0.00413    CDp =  0.00227

 Side 1  free  transition at x/c =  0.6539  118
 Side 2  free  transition at x/c =  0.9175  130

  13   rms: 0.3078E+01   max: -.5779E+02   C at  130  2   RLX: 0.009
       a =  2.000      CL =  0.8694
      Cm = -0.1521     CD =  0.00637   =>   CDf =  0.00410    CDp =  0.00227

 Side 1  free  transition at x/c =  0.6539  118
 Side 2  free  transition at x/c =  0.9351  132

  14   rms: 0.5641E+01   max: -.1020E+03   C at  132  2   RLX: 0.005
       a =  2.000      CL =  0.8700
      Cm = -0.1522     CD =  0.00635   =>   CDf =  0.00408    CDp =  0.00227

 Side 1  free  transition at x/c =  0.6539  118
 Side 2  free  transition at x/c =  0.9520  134

  15   rms: 0.1449E+02   max: -.2534E+03   C at  134  2   RLX: 0.002
       a =  2.000      CL =  0.8713
      Cm = -0.1525     CD =  0.00634   =>   CDf =  0.00407    CDp =  0.00227

 Side 1  free  transition at x/c =  0.6539  118
 Side 2  free  transition at x/c =  0.9688  136

  16   rms: 0.2103E+02   max: -.3703E+03   C at  136  2   RLX: 0.001
       a =  2.000      CL =  0.8723
      Cm = -0.1528     CD =  0.00633   =>   CDf =  0.00406    CDp =  0.00226

 Side 1  free  transition at x/c =  0.6539  118
 Side 2  free  transition at x/c =  0.9855  139

  17   rms: 0.1362E+02   max: -.2998E+03   C at  139  2   RLX: 0.002
       a =  2.000      CL =  0.8729
      Cm = -0.1529     CD =  0.00632   =>   CDf =  0.00406    CDp =  0.00226

 Side 1  free  transition at x/c =  0.6538  118
 Side 2 forced transition at x/c =  1.0000  141

  18   rms: 0.6566E-01   max: -.8716E+00   n at  140  2   RLX: 0.574
       a =  2.000      CL =  0.8725
      Cm = -0.1531     CD =  0.00626   =>   CDf =  0.00406    CDp =  0.00220

 Side 1  free  transition at x/c =  0.6557  118
 Side 2 forced transition at x/c =  1.0000  141

  19   rms: 0.1408E-01   max: 0.2017E+00   D at  100  2
       a =  2.000      CL =  0.8726
      Cm = -0.1532     CD =  0.00620   =>   CDf =  0.00402    CDp =  0.00218

 Side 1  free  transition at x/c =  0.6567  118
 Side 2 forced transition at x/c =  1.0000  141

  20   rms: 0.1077E-02   max: 0.9190E-02   C at  118  1
       a =  2.000      CL =  0.8726
      Cm = -0.1532     CD =  0.00620   =>   CDf =  0.00400    CDp =  0.00220

 Side 1  free  transition at x/c =  0.6564  118
 Side 2 forced transition at x/c =  1.0000  141

  21   rms: 0.1049E-04   max: -.1617E-03   D at    4  1
       a =  2.000      CL =  0.8726
      Cm = -0.1532     CD =  0.00620   =>   CDf =  0.00400    CDp =  0.00220
 plradd ia,ip,cpol            8         160  0.22151013    

 Point added to stored polar  1
 Save file unspecified or not available
 Dump file unspecified or not available

.OPERva   c>  
.OPERva   c>  
.OPERva   c>   Calculating wake trajectory ...
 Array size (IWX) too small.  Last wake point index reduced.
 Calculating source influence matrix ...

 Solving BL system ...

 Side 1  free  transition at x/c =  0.6564  118
 Side 2 forced transition at x/c =  1.0000  141

   1   rms: 0.1776E+00   max: -.3635E+00   n at  128  2
       a =  3.000      CL =  0.9838
      Cm = -0.1528     CD =  0.00656   =>   CDf =  0.00396    CDp =  0.00261

 Side 1  free  transition at x/c =  0.6115  115
 Side 2 forced transition at x/c =  1.0000  139

   2   rms: 0.2824E-01   max: -.4024E+00   D at  116  1
       a =  3.000      CL =  0.9801
      Cm = -0.1519     CD =  0.00669   =>   CDf =  0.00430    CDp =  0.00239

 Side 1  free  transition at x/c =  0.6188  116
 Side 2 forced transition at x/c =  1.0000  139

   3   rms: 0.6496E-02   max: 0.1201E+00   C at  116  1
       a =  3.000      CL =  0.9811
      Cm = -0.1522     CD =  0.00670   =>   CDf =  0.00416    CDp =  0.00254

 Side 1  free  transition at x/c =  0.6165  116
 Side 2 forced transition at x/c =  1.0000  139

   4   rms: 0.5269E-03   max: -.1066E-01   D at  118  1
       a =  3.000      CL =  0.9811
      Cm = -0.1522     CD =  0.00671   =>   CDf =  0.00419    CDp =  0.00252

 Side 1  free  transition at x/c =  0.6164  116
 Side 2 forced transition at x/c =  1.0000  139

   5   rms: 0.3691E-05   max: -.7308E-04   D at  118  1
       a =  3.000      CL =  0.9811
      Cm = -0.1522     CD =  0.00671   =>   CDf =  0.00419    CDp =  0.00252
 plradd ia,ip,cpol            9         162  0.16641566    

 Point added to stored polar  1
 Save file unspecified or not available
 Dump file unspecified or not available

.OPERva   c>  
.OPERva   c>  
.OPERva   c>   Calculating wake trajectory ...
 Array size (IWX) too small.  Last wake point index reduced.
 Calculating source influence matrix ...

 Solving BL system ...

 Side 1  free  transition at x/c =  0.6164  116
 Side 2 forced transition at x/c =  1.0000  139

   1   rms: 0.1770E+00   max: 0.1331E+01   C at  116  1   RLX: 0.628
       a =  4.000      CL =  1.0465
      Cm = -0.1510     CD =  0.00719   =>   CDf =  0.00416    CDp =  0.00303

 Side 1  free  transition at x/c =  0.5855  113
 Side 2 forced transition at x/c =  1.0000  138

   2   rms: 0.6460E-01   max: -.4772E+00   D at  114  1
       a =  4.000      CL =  1.0880
      Cm = -0.1508     CD =  0.00727   =>   CDf =  0.00430    CDp =  0.00297

 Side 1  free  transition at x/c =  0.5644  111
 Side 2 forced transition at x/c =  1.0000  137

   3   rms: 0.1224E-01   max: 0.1966E+00   D at  113  1
       a =  4.000      CL =  1.0855
      Cm = -0.1503     CD =  0.00738   =>   CDf =  0.00441    CDp =  0.00297

 Side 1  free  transition at x/c =  0.5682  112
 Side 2 forced transition at x/c =  1.0000  137

   4   rms: 0.1864E-02   max: 0.2934E-01   C at  112  1
       a =  4.000      CL =  1.0862
      Cm = -0.1505     CD =  0.00734   =>   CDf =  0.00436    CDp =  0.00298

 Side 1  free  transition at x/c =  0.5673  112
 Side 2 forced transition at x/c =  1.0000  137

   5   rms: 0.1160E-03   max: 0.2343E-02   C at  112  1
       a =  4.000      CL =  1.0862
      Cm = -0.1505     CD =  0.00734   =>   CDf =  0.00436    CDp =  0.00298

 Side 1  free  transition at x/c =  0.5673  112
 Side 2 forced transition at x/c =  1.0000  137

   6   rms: 0.9192E-06   max: 0.7963E-05   C at  112  1
       a =  4.000      CL =  1.0862
      Cm = -0.1505     CD =  0.00734   =>   CDf =  0.00436    CDp =  0.00298
 plradd ia,ip,cpol           10         164  3.14935520E-02

 Point added to stored polar  1
 Save file unspecified or not available
 Dump file unspecified or not available

.OPERva   c>  
.OPERva   c>  
.OPERva   c>   Calculating wake trajectory ...
 Array size (IWX) too small.  Last wake point index reduced.
 Calculating source influence matrix ...

 Solving BL system ...

 Side 1  free  transition at x/c =  0.5673  112
 Side 2 forced transition at x/c =  1.0000  137

   1   rms: 0.1806E+00   max: 0.1776E+01   C at  112  1   RLX: 0.563
       a =  5.000      CL =  1.1426
      Cm = -0.1490     CD =  0.00783   =>   CDf =  0.00428    CDp =  0.00355

 Side 1  free  transition at x/c =  0.5237  109
 Side 2 forced transition at x/c =  1.0000  135

   2   rms: 0.7407E-01   max: -.4482E+00   D at  109  1
       a =  5.000      CL =  1.1856
      Cm = -0.1477     CD =  0.00824   =>   CDf =  0.00454    CDp =  0.00370

 Side 1  free  transition at x/c =  0.4919  106
 Side 2 forced transition at x/c =  1.0000  134

   3   rms: 0.1683E-01   max: -.2543E+00   C at  106  1
       a =  5.000      CL =  1.1837
      Cm = -0.1473     CD =  0.00827   =>   CDf =  0.00468    CDp =  0.00359

 Side 1  free  transition at x/c =  0.4972  107
 Side 2 forced transition at x/c =  1.0000  134

   4   rms: 0.1797E-02   max: -.2719E-01   D at  109  1
       a =  5.000      CL =  1.1837
      Cm = -0.1473     CD =  0.00828   =>   CDf =  0.00464    CDp =  0.00365

 Side 1  free  transition at x/c =  0.4969  107
 Side 2 forced transition at x/c =  1.0000  134

   5   rms: 0.3851E-04   max: 0.8221E-03   C at  107  1
       a =  5.000      CL =  1.1837
      Cm = -0.1473     CD =  0.00829   =>   CDf =  0.00464    CDp =  0.00365
 plradd ia,ip,cpol           11         167  1.26974452E-02

 Point added to stored polar  1
 Save file unspecified or not available
 Dump file unspecified or not available

.OPERva   c>  
.OPERva   c>  
.OPERva   c>   Calculating wake trajectory ...
 Array size (IWX) too small.  Last wake point index reduced.
 Calculating source influence matrix ...

 Solving BL system ...

 Side 1  free  transition at x/c =  0.4969  107
 Side 2 forced transition at x/c =  1.0000  134

   1   rms: 0.2029E+00   max: 0.2759E+01   C at  107  1   RLX: 0.406
       a =  6.000      CL =  1.2199
      Cm = -0.1455     CD =  0.00887   =>   CDf =  0.00459    CDp =  0.00429

 Side 1  free  transition at x/c =  0.4619  103
 Side 2 forced transition at x/c =  1.0000  133

   2   rms: 0.1006E+00   max: -.4486E+00   D at  104  1
       a =  6.000      CL =  1.2832
      Cm = -0.1447     CD =  0.00919   =>   CDf =  0.00474    CDp =  0.00445

 Side 1  free  transition at x/c =  0.4018   97
 Side 2 forced transition at x/c =  1.0000  132

   3   rms: 0.2318E-01   max: -.3640E+00   C at   97  1
       a =  6.000      CL =  1.2725
      Cm = -0.1427     CD =  0.00962   =>   CDf =  0.00506    CDp =  0.00456

 Side 1  free  transition at x/c =  0.4178   99
 Side 2 forced transition at x/c =  1.0000  132

   4   rms: 0.5959E-02   max: -.1000E+00   D at   99  1
       a =  6.000      CL =  1.2752
      Cm = -0.1432     CD =  0.00951   =>   CDf =  0.00495    CDp =  0.00456

 Side 1  free  transition at x/c =  0.4118   98
 Side 2 forced transition at x/c =  1.0000  132

   5   rms: 0.3666E-02   max: -.8122E-01   C at   98  1
       a =  6.000      CL =  1.2739
      Cm = -0.1430     CD =  0.00957   =>   CDf =  0.00498    CDp =  0.00460

 Side 1  free  transition at x/c =  0.4133   99
 Side 2 forced transition at x/c =  1.0000  132

   6   rms: 0.1167E-02   max: -.2452E-01   C at   99  1
       a =  6.000      CL =  1.2742
      Cm = -0.1430     CD =  0.00956   =>   CDf =  0.00496    CDp =  0.00460

 Side 1  free  transition at x/c =  0.4133   99
 Side 2 forced transition at x/c =  1.0000  132

   7   rms: 0.1720E-04   max: 0.1509E-03   C at   99  1
       a =  6.000      CL =  1.2742
      Cm = -0.1430     CD =  0.00956   =>   CDf =  0.00496    CDp =  0.00460
 plradd ia,ip,cpol           12         169  6.70791697E-03

 Point added to stored polar  1
 Save file unspecified or not available
 Dump file unspecified or not available

.OPERva   c>  
.OPERva   c>  
.OPERva   c>   Calculating wake trajectory ...
 Array size (IWX) too small.  Last wake point index reduced.
 Calculating source influence matrix ...

 Solving BL system ...

 Side 1  free  transition at x/c =  0.4133   99
 Side 2 forced transition at x/c =  1.0000  132

   1   rms: 0.2271E+00   max: 0.3961E+01   C at   99  1   RLX: 0.369
       a =  7.000      CL =  1.3043
      Cm = -0.1409     CD =  0.01024   =>   CDf =  0.00490    CDp =  0.00534

 Side 1  free  transition at x/c =  0.3714   95
 Side 2 forced transition at x/c =  1.0000  131

   2   rms: 0.1272E+00   max: 0.1817E+01   C at   95  1   RLX: 0.741
       a =  7.000      CL =  1.3410
      Cm = -0.1380     CD =  0.01113   =>   CDf =  0.00510    CDp =  0.00603

 Side 1  free  transition at x/c =  0.3134   89
 Side 2 forced transition at x/c =  1.0000  130

   3   rms: 0.2848E-01   max: -.1996E+00   D at   96  1
       a =  7.000      CL =  1.3496
      Cm = -0.1362     CD =  0.01147   =>   CDf =  0.00545    CDp =  0.00602

 Side 1  free  transition at x/c =  0.3003   87
 Side 2 forced transition at x/c =  1.0000  130

   4   rms: 0.6820E-02   max: -.1670E+00   C at   87  1
       a =  7.000      CL =  1.3468
      Cm = -0.1356     CD =  0.01150   =>   CDf =  0.00548    CDp =  0.00602

 Side 1  free  transition at x/c =  0.3030   87
 Side 2 forced transition at x/c =  1.0000  130

   5   rms: 0.1675E-02   max: -.4214E-01   C at   87  1
       a =  7.000      CL =  1.3469
      Cm = -0.1356     CD =  0.01151   =>   CDf =  0.00547    CDp =  0.00604

 Side 1  free  transition at x/c =  0.3030   87
 Side 2 forced transition at x/c =  1.0000  130

   6   rms: 0.1954E-02   max: -.4950E-01   C at   87  1
       a =  7.000      CL =  1.3469
      Cm = -0.1356     CD =  0.01151   =>   CDf =  0.00547    CDp =  0.00604

 Side 1  free  transition at x/c =  0.3030   87
 Side 2 forced transition at x/c =  1.0000  130

   7   rms: 0.1946E-02   max: -.4927E-01   C at   87  1
       a =  7.000      CL =  1.3469
      Cm = -0.1356     CD =  0.01151   =>   CDf =  0.00547    CDp =  0.00604

 Side 1  free  transition at x/c =  0.3030   87
 Side 2 forced transition at x/c =  1.0000  130

   8   rms: 0.1947E-02   max: -.4929E-01   C at   87  1
       a =  7.000      CL =  1.3469
      Cm = -0.1356     CD =  0.01151   =>   CDf =  0.00547    CDp =  0.00604

 Side 1  free  transition at x/c =  0.3030   87
 Side 2 forced transition at x/c =  1.0000  130

   9   rms: 0.1946E-02   max: -.4927E-01   C at   87  1
       a =  7.000      CL =  1.3469
      Cm = -0.1356     CD =  0.01151   =>   CDf =  0.00547    CDp =  0.00604

 Side 1  free  transition at x/c =  0.3030   87
 Side 2 forced transition at x/c =  1.0000  130

  10   rms: 0.1946E-02   max: -.4927E-01   C at   87  1
       a =  7.000      CL =  1.3469
      Cm = -0.1356     CD =  0.01151   =>   CDf =  0.00547    CDp =  0.00604

 Side 1  free  transition at x/c =  0.3030   87
 Side 2 forced transition at x/c =  1.0000  130

  11   rms: 0.1948E-02   max: -.4932E-01   C at   87  1
       a =  7.000      CL =  1.3469
      Cm = -0.1356     CD =  0.01151   =>   CDf =  0.00547    CDp =  0.00604

 Side 1  free  transition at x/c =  0.3030   87
 Side 2 forced transition at x/c =  1.0000  130

  12   rms: 0.1947E-02   max: -.4928E-01   C at   87  1
       a =  7.000      CL =  1.3469
      Cm = -0.1356     CD =  0.01151   =>   CDf =  0.00547    CDp =  0.00604

 Side 1  free  transition at x/c =  0.3030   87
 Side 2 forced transition at x/c =  1.0000  130

  13   rms: 0.1947E-02   max: -.4927E-01   C at   87  1
       a =  7.000      CL =  1.3469
      Cm = -0.1356     CD =  0.01151   =>   CDf =  0.00547    CDp =  0.00604

 Side 1  free  transition at x/c =  0.3030   87
 Side 2 forced transition at x/c =  1.0000  130

  14   rms: 0.1946E-02   max: -.4926E-01   C at   87  1
       a =  7.000      CL =  1.3469
      Cm = -0.1356     CD =  0.01151   =>   CDf =  0.00547    CDp =  0.00604

 Side 1  free  transition at x/c =  0.3030   87
 Side 2 forced transition at x/c =  1.0000  130

  15   rms: 0.1946E-02   max: -.4927E-01   C at   87  1
       a =  7.000      CL =  1.3469
      Cm = -0.1356     CD =  0.01151   =>   CDf =  0.00547    CDp =  0.00604

 Side 1  free  transition at x/c =  0.3030   87
 Side 2 forced transition at x/c =  1.0000  130

  16   rms: 0.1946E-02   max: -.4927E-01   C at   87  1
       a =  7.000      CL =  1.3469
      Cm = -0.1356     CD =  0.01151   =>   CDf =  0.00547    CDp =  0.00604

 Side 1  free  transition at x/c =  0.3030   87
 Side 2 forced transition at x/c =  1.0000  130

  17   rms: 0.1946E-02   max: -.4926E-01   C at   87  1
       a =  7.000      CL =  1.3469
      Cm = -0.1356     CD =  0.01151   =>   CDf =  0.00547    CDp =  0.00604

 Side 1  free  transition at x/c =  0.3030   87
 Side 2 forced transition at x/c =  1.0000  130

  18   rms: 0.1946E-02   max: -.4927E-01   C at   87  1
       a =  7.000      CL =  1.3469
      Cm = -0.1356     CD =  0.01151   =>   CDf =  0.00547    CDp =  0.00604

 Side 1  free  transition at x/c =  0.3030   87
 Side 2 forced transition at x/c =  1.0000  130

  19   rms: 0.1946E-02   max: -.4927E-01   C at   87  1
       a =  7.000      CL =  1.3469
      Cm = -0.1356     CD =  0.01151   =>   CDf =  0.00547    CDp =  0.00604

 Side 1  free  transition at x/c =  0.3030   87
 Side 2 forced transition at x/c =  1.0000  130

  20   rms: 0.1947E-02   max: -.4928E-01   C at   87  1
       a =  7.000      CL =  1.3469
      Cm = -0.1356     CD =  0.01151   =>   CDf =  0.00547    CDp =  0.00604

 Side 1  free  transition at x/c =  0.3030   87
 Side 2 forced transition at x/c =  1.0000  130

  21   rms: 0.1946E-02   max: -.4926E-01   C at   87  1
       a =  7.000      CL =  1.3469
      Cm = -0.1356     CD =  0.01151   =>   CDf =  0.00547    CDp =  0.00604

 Side 1  free  transition at x/c =  0.3030   87
 Side 2 forced transition at x/c =  1.0000  130

  22   rms: 0.1947E-02   max: -.4929E-01   C at   87  1
       a =  7.000      CL =  1.3469
      Cm = -0.1356     CD =  0.01151   =>   CDf =  0.00547    CDp =  0.00604

 Side 1  free  transition at x/c =  0.3030   87
 Side 2 forced transition at x/c =  1.0000  130

  23   rms: 0.1947E-02   max: -.4928E-01   C at   87  1
       a =  7.000      CL =  1.3469
      Cm = -0.1356     CD =  0.01151   =>   CDf =  0.00547    CDp =  0.00604

 Side 1  free  transition at x/c =  0.3030   87
 Side 2 forced transition at x/c =  1.0000  130

  24   rms: 0.1946E-02   max: -.4927E-01   C at   87  1
       a =  7.000      CL =  1.3469
      Cm = -0.1356     CD =  0.01151   =>   CDf =  0.00547    CDp =  0.00604

 Side 1  free  transition at x/c =  0.3030   87
 Side 2 forced transition at x/c =  1.0000  130

  25   rms: 0.1947E-02   max: -.4928E-01   C at   87  1
       a =  7.000      CL =  1.3469
      Cm = -0.1356     CD =  0.01151   =>   CDf =  0.00547    CDp =  0.00604

 Side 1  free  transition at x/c =  0.3030   87
 Side 2 forced transition at x/c =  1.0000  130

  26   rms: 0.1947E-02   max: -.4928E-01   C at   87  1
       a =  7.000      CL =  1.3469
      Cm = -0.1356     CD =  0.01151   =>   CDf =  0.00547    CDp =  0.00604

 Side 1  free  transition at x/c =  0.3030   87
 Side 2 forced transition at x/c =  1.0000  130

  27   rms: 0.1946E-02   max: -.4927E-01   C at   87  1
       a =  7.000      CL =  1.3469
      Cm = -0.1356     CD =  0.01151   =>   CDf =  0.00547    CDp =  0.00604

 Side 1  free  transition at x/c =  0.3030   87
 Side 2 forced transition at x/c =  1.0000  130

  28   rms: 0.1947E-02   max: -.4928E-01   C at   87  1
       a =  7.000      CL =  1.3469
      Cm = -0.1356     CD =  0.01151   =>   CDf =  0.00547    CDp =  0.00604

 Side 1  free  transition at x/c =  0.3030   87
 Side 2 forced transition at x/c =  1.0000  130

  29   rms: 0.1947E-02   max: -.4928E-01   C at   87  1
       a =  7.000      CL =  1.3469
      Cm = -0.1356     CD =  0.01151   =>   CDf =  0.00547    CDp =  0.00604

 Side 1  free  transition at x/c =  0.3030   87
 Side 2 forced transition at x/c =  1.0000  130

  30   rms: 0.1947E-02   max: -.4929E-01   C at   87  1
       a =  7.000      CL =  1.3469
      Cm = -0.1356     CD =  0.01151   =>   CDf =  0.00547    CDp =  0.00604

 Side 1  free  transition at x/c =  0.3030   87
 Side 2 forced transition at x/c =  1.0000  130

  31   rms: 0.1947E-02   max: -.4928E-01   C at   87  1
       a =  7.000      CL =  1.3469
      Cm = -0.1356     CD =  0.01151   =>   CDf =  0.00547    CDp =  0.00604

 Side 1  free  transition at x/c =  0.3030   87
 Side 2 forced transition at x/c =  1.0000  130

  32   rms: 0.1947E-02   max: -.4928E-01   C at   87  1
       a =  7.000      CL =  1.3469
      Cm = -0.1356     CD =  0.01151   =>   CDf =  0.00547    CDp =  0.00604

 Side 1  free  transition at x/c =  0.3030   87
 Side 2 forced transition at x/c =  1.0000  130

  33   rms: 0.1947E-02   max: -.4929E-01   C at   87  1
       a =  7.000      CL =  1.3469
      Cm = -0.1356     CD =  0.01151   =>   CDf =  0.00547    CDp =  0.00604

 Side 1  free  transition at x/c =  0.3030   87
 Side 2 forced transition at x/c =  1.0000  130

  34   rms: 0.1947E-02   max: -.4927E-01   C at   87  1
       a =  7.000      CL =  1.3469
      Cm = -0.1356     CD =  0.01151   =>   CDf =  0.00547    CDp =  0.00604

 Side 1  free  transition at x/c =  0.3030   87
 Side 2 forced transition at x/c =  1.0000  130

  35   rms: 0.1947E-02   max: -.4928E-01   C at   87  1
       a =  7.000      CL =  1.3469
      Cm = -0.1356     CD =  0.01151   =>   CDf =  0.00547    CDp =  0.00604

 Side 1  free  transition at x/c =  0.3030   87
 Side 2 forced transition at x/c =  1.0000  130

  36   rms: 0.1946E-02   max: -.4927E-01   C at   87  1
       a =  7.000      CL =  1.3469
      Cm = -0.1356     CD =  0.01151   =>   CDf =  0.00547    CDp =  0.00604

 Side 1  free  transition at x/c =  0.3030   87
 Side 2 forced transition at x/c =  1.0000  130

  37   rms: 0.1947E-02   max: -.4928E-01   C at   87  1
       a =  7.000      CL =  1.3469
      Cm = -0.1356     CD =  0.01151   =>   CDf =  0.00547    CDp =  0.00604

 Side 1  free  transition at x/c =  0.3030   87
 Side 2 forced transition at x/c =  1.0000  130

  38   rms: 0.1947E-02   max: -.4928E-01   C at   87  1
       a =  7.000      CL =  1.3469
      Cm = -0.1356     CD =  0.01151   =>   CDf =  0.00547    CDp =  0.00604

 Side 1  free  transition at x/c =  0.3030   87
 Side 2 forced transition at x/c =  1.0000  130

  39   rms: 0.1947E-02   max: -.4928E-01   C at   87  1
       a =  7.000      CL =  1.3469
      Cm = -0.1356     CD =  0.01151   =>   CDf =  0.00547    CDp =  0.00604

 Side 1  free  transition at x/c =  0.3030   87
 Side 2 forced transition at x/c =  1.0000  130

  40   rms: 0.1947E-02   max: -.4928E-01   C at   87  1
       a =  7.000      CL =  1.3469
      Cm = -0.1356     CD =  0.01151   =>   CDf =  0.00547    CDp =  0.00604

 Side 1  free  transition at x/c =  0.3030   87
 Side 2 forced transition at x/c =  1.0000  130

  41   rms: 0.1947E-02   max: -.4929E-01   C at   87  1
       a =  7.000      CL =  1.3469
      Cm = -0.1356     CD =  0.01151   =>   CDf =  0.00547    CDp =  0.00604

 Side 1  free  transition at x/c =  0.3030   87
 Side 2 forced transition at x/c =  1.0000  130

  42   rms: 0.1948E-02   max: -.4931E-01   C at   87  1
       a =  7.000      CL =  1.3469
      Cm = -0.1356     CD =  0.01151   =>   CDf =  0.00547    CDp =  0.00604

 Side 1  free  transition at x/c =  0.3030   87
 Side 2 forced transition at x/c =  1.0000  130

  43   rms: 0.1946E-02   max: -.4926E-01   C at   87  1
       a =  7.000      CL =  1.3469
      Cm = -0.1356     CD =  0.01151   =>   CDf =  0.00547    CDp =  0.00604

 Side 1  free  transition at x/c =  0.3030   87
 Side 2 forced transition at x/c =  1.0000  130

  44   rms: 0.1947E-02   max: -.4930E-01   C at   87  1
       a =  7.000      CL =  1.3469
      Cm = -0.1356     CD =  0.01151   =>   CDf =  0.00547    CDp =  0.00604

 Side 1  free  transition at x/c =  0.3030   87
 Side 2 forced transition at x/c =  1.0000  130

  45   rms: 0.1946E-02   max: -.4927E-01   C at   87  1
       a =  7.000      CL =  1.3469
      Cm = -0.1356     CD =  0.01151   =>   CDf =  0.00547    CDp =  0.00604

 Side 1  free  transition at x/c =  0.3030   87
 Side 2 forced transition at x/c =  1.0000  130

  46   rms: 0.1947E-02   max: -.4929E-01   C at   87  1
       a =  7.000      CL =  1.3469
      Cm = -0.1356     CD =  0.01151   =>   CDf =  0.00547    CDp =  0.00604

 Side 1  free  transition at x/c =  0.3030   87
 Side 2 forced transition at x/c =  1.0000  130

  47   rms: 0.1947E-02   max: -.4929E-01   C at   87  1
       a =  7.000      CL =  1.3469
      Cm = -0.1356     CD =  0.01151   =>   CDf =  0.00547    CDp =  0.00604

 Side 1  free  transition at x/c =  0.3030   87
 Side 2 forced transition at x/c =  1.0000  130

  48   rms: 0.1947E-02   max: -.4929E-01   C at   87  1
       a =  7.000      CL =  1.3469
      Cm = -0.1356     CD =  0.01151   =>   CDf =  0.00547    CDp =  0.00604

 Side 1  free  transition at x/c =  0.3030   87
 Side 2 forced transition at x/c =  1.0000  130

  49   rms: 0.1946E-02   max: -.4926E-01   C at   87  1
       a =  7.000      CL =  1.3469
      Cm = -0.1356     CD =  0.01151   =>   CDf =  0.00547    CDp =  0.00604

 Side 1  free  transition at x/c =  0.3030   87
 Side 2 forced transition at x/c =  1.0000  130

  50   rms: 0.1947E-02   max: -.4929E-01   C at   87  1
       a =  7.000      CL =  1.3469
      Cm = -0.1356     CD =  0.01151   =>   CDf =  0.00547    CDp =  0.00604

 Side 1  free  transition at x/c =  0.3030   87
 Side 2 forced transition at x/c =  1.0000  130

  51   rms: 0.1946E-02   max: -.4927E-01   C at   87  1
       a =  7.000      CL =  1.3469
      Cm = -0.1356     CD =  0.01151   =>   CDf =  0.00547    CDp =  0.00604

 Side 1  free  transition at x/c =  0.3030   87
 Side 2 forced transition at x/c =  1.0000  130

  52   rms: 0.1947E-02   max: -.4928E-01   C at   87  1
       a =  7.000      CL =  1.3469
      Cm = -0.1356     CD =  0.01151   =>   CDf =  0.00547    CDp =  0.00604

 Side 1  free  transition at x/c =  0.3030   87
 Side 2 forced transition at x/c =  1.0000  130

  53   rms: 0.1946E-02   max: -.4928E-01   C at   87  1
       a =  7.000      CL =  1.3469
      Cm = -0.1356     CD =  0.01151   =>   CDf =  0.00547    CDp =  0.00604

 Side 1  free  transition at x/c =  0.3030   87
 Side 2 forced transition at x/c =  1.0000  130

  54   rms: 0.1947E-02   max: -.4928E-01   C at   87  1
       a =  7.000      CL =  1.3469
      Cm = -0.1356     CD =  0.01151   =>   CDf =  0.00547    CDp =  0.00604

 Side 1  free  transition at x/c =  0.3030   87
 Side 2 forced transition at x/c =  1.0000  130

  55   rms: 0.1947E-02   max: -.4929E-01   C at   87  1
       a =  7.000      CL =  1.3469
      Cm = -0.1356     CD =  0.01151   =>   CDf =  0.00547    CDp =  0.00604

 Side 1  free  transition at x/c =  0.3030   87
 Side 2 forced transition at x/c =  1.0000  130

  56   rms: 0.1946E-02   max: -.4927E-01   C at   87  1
       a =  7.000      CL =  1.3469
      Cm = -0.1356     CD =  0.01151   =>   CDf =  0.00547    CDp =  0.00604

 Side 1  free  transition at x/c =  0.3030   87
 Side 2 forced transition at x/c =  1.0000  130

  57   rms: 0.1946E-02   max: -.4927E-01   C at   87  1
       a =  7.000      CL =  1.3469
      Cm = -0.1356     CD =  0.01151   =>   CDf =  0.00547    CDp =  0.00604

 Side 1  free  transition at x/c =  0.3030   87
 Side 2 forced transition at x/c =  1.0000  130

  58   rms: 0.1946E-02   max: -.4927E-01   C at   87  1
       a =  7.000      CL =  1.3469
      Cm = -0.1356     CD =  0.01151   =>   CDf =  0.00547    CDp =  0.00604

 Side 1  free  transition at x/c =  0.3030   87
 Side 2 forced transition at x/c =  1.0000  130

  59   rms: 0.1947E-02   max: -.4929E-01   C at   87  1
       a =  7.000      CL =  1.3469
      Cm = -0.1356     CD =  0.01151   =>   CDf =  0.00547    CDp =  0.00604

 Side 1  free  transition at x/c =  0.3030   87
 Side 2 forced transition at x/c =  1.0000  130

  60   rms: 0.1946E-02   max: -.4926E-01   C at   87  1
       a =  7.000      CL =  1.3469
      Cm = -0.1356     CD =  0.01151   =>   CDf =  0.00547    CDp =  0.00604

 Side 1  free  transition at x/c =  0.3030   87
 Side 2 forced transition at x/c =  1.0000  130

  61   rms: 0.1948E-02   max: -.4931E-01   C at   87  1
       a =  7.000      CL =  1.3469
      Cm = -0.1356     CD =  0.01151   =>   CDf =  0.00547    CDp =  0.00604

 Side 1  free  transition at x/c =  0.3030   87
 Side 2 forced transition at x/c =  1.0000  130

  62   rms: 0.1946E-02   max: -.4927E-01   C at   87  1
       a =  7.000      CL =  1.3469
      Cm = -0.1356     CD =  0.01151   =>   CDf =  0.00547    CDp =  0.00604

 Side 1  free  transition at x/c =  0.3030   87
 Side 2 forced transition at x/c =  1.0000  130

  63   rms: 0.1947E-02   max: -.4928E-01   C at   87  1
       a =  7.000      CL =  1.3469
      Cm = -0.1356     CD =  0.01151   =>   CDf =  0.00547    CDp =  0.00604

 Side 1  free  transition at x/c =  0.3030   87
 Side 2 forced transition at x/c =  1.0000  130

  64   rms: 0.1947E-02   max: -.4929E-01   C at   87  1
       a =  7.000      CL =  1.3469
      Cm = -0.1356     CD =  0.01151   =>   CDf =  0.00547    CDp =  0.00604

 Side 1  free  transition at x/c =  0.3030   87
 Side 2 forced transition at x/c =  1.0000  130

  65   rms: 0.1946E-02   max: -.4927E-01   C at   87  1
       a =  7.000      CL =  1.3469
      Cm = -0.1356     CD =  0.01151   =>   CDf =  0.00547    CDp =  0.00604

 Side 1  free  transition at x/c =  0.3030   87
 Side 2 forced transition at x/c =  1.0000  130

  66   rms: 0.1948E-02   max: -.4930E-01   C at   87  1
       a =  7.000      CL =  1.3469
      Cm = -0.1356     CD =  0.01151   =>   CDf =  0.00547    CDp =  0.00604

 Side 1  free  transition at x/c =  0.3030   87
 Side 2 forced transition at x/c =  1.0000  130

  67   rms: 0.1946E-02   max: -.4927E-01   C at   87  1
       a =  7.000      CL =  1.3469
      Cm = -0.1356     CD =  0.01151   =>   CDf =  0.00547    CDp =  0.00604

 Side 1  free  transition at x/c =  0.3030   87
 Side 2 forced transition at x/c =  1.0000  130

  68   rms: 0.1947E-02   max: -.4928E-01   C at   87  1
       a =  7.000      CL =  1.3469
      Cm = -0.1356     CD =  0.01151   =>   CDf =  0.00547    CDp =  0.00604

 Side 1  free  transition at x/c =  0.3030   87
 Side 2 forced transition at x/c =  1.0000  130

  69   rms: 0.1947E-02   max: -.4928E-01   C at   87  1
       a =  7.000      CL =  1.3469
      Cm = -0.1356     CD =  0.01151   =>   CDf =  0.00547    CDp =  0.00604

 Side 1  free  transition at x/c =  0.3030   87
 Side 2 forced transition at x/c =  1.0000  130

  70   rms: 0.1947E-02   max: -.4928E-01   C at   87  1
       a =  7.000      CL =  1.3469
      Cm = -0.1356     CD =  0.01151   =>   CDf =  0.00547    CDp =  0.00604

 Side 1  free  transition at x/c =  0.3030   87
 Side 2 forced transition at x/c =  1.0000  130

  71   rms: 0.1947E-02   max: -.4929E-01   C at   87  1
       a =  7.000      CL =  1.3469
      Cm = -0.1356     CD =  0.01151   =>   CDf =  0.00547    CDp =  0.00604

 Side 1  free  transition at x/c =  0.3030   87
 Side 2 forced transition at x/c =  1.0000  130

  72   rms: 0.1947E-02   max: -.4928E-01   C at   87  1
       a =  7.000      CL =  1.3469
      Cm = -0.1356     CD =  0.01151   =>   CDf =  0.00547    CDp =  0.00604

 Side 1  free  transition at x/c =  0.3030   87
 Side 2 forced transition at x/c =  1.0000  130

  73   rms: 0.1946E-02   max: -.4926E-01   C at   87  1
       a =  7.000      CL =  1.3469
      Cm = -0.1356     CD =  0.01151   =>   CDf =  0.00547    CDp =  0.00604

 Side 1  free  transition at x/c =  0.3030   87
 Side 2 forced transition at x/c =  1.0000  130

  74   rms: 0.1947E-02   max: -.4928E-01   C at   87  1
[...]

 Side 1  free  transition at x/c =  0.0278   55
 Side 2 forced transition at x/c =  1.0000  121

   3   rms: 0.1483E-01   max: -.1841E+00   D at   55  1
       a = 12.000      CL =  1.5823
      Cm = -0.0904     CD =  0.03059   =>   CDf =  0.00657    CDp =  0.02403

 Side 1  free  transition at x/c =  0.0283   55
 Side 2 forced transition at x/c =  1.0000  121

   4   rms: 0.1304E-02   max: -.1409E-01   D at    4  1
       a = 12.000      CL =  1.5828
      Cm = -0.0904     CD =  0.03053   =>   CDf =  0.00655    CDp =  0.02397

 Side 1  free  transition at x/c =  0.0282   55
 Side 2 forced transition at x/c =  1.0000  121

   5   rms: 0.2588E-04   max: -.3365E-03   D at  140  2
       a = 12.000      CL =  1.5828
      Cm = -0.0904     CD =  0.03053   =>   CDf =  0.00655    CDp =  0.02398
 plradd ia,ip,cpol           17         180  1.24708074E-03

 Point added to stored polar  1
 Save file unspecified or not available
 Dump file unspecified or not available

.OPERva   c>  
.OPERva   c>  
.OPERva   c>   Calculating wake trajectory ...
 Array size (IWX) too small.  Last wake point index reduced.
 Calculating source influence matrix ...

 Solving BL system ...

 Side 1  free  transition at x/c =  0.0282   55
 Side 2 forced transition at x/c =  1.0000  121

   1   rms: 0.1372E+00   max: 0.7637E+00   T at   55  1   RLX: 0.769
       a = 13.000      CL =  1.6238
      Cm = -0.0863     CD =  0.03451   =>   CDf =  0.00639    CDp =  0.02812

 Side 1  free  transition at x/c =  0.0239   55
 Side 2 forced transition at x/c =  1.0000  120

   2   rms: 0.4388E-01   max: -.5142E+00   D at   55  1   RLX: 0.972
       a = 13.000      CL =  1.6156
      Cm = -0.0839     CD =  0.03683   =>   CDf =  0.00639    CDp =  0.03044

 Side 1  free  transition at x/c =  0.0238   55
 Side 2 forced transition at x/c =  1.0000  120

   3   rms: 0.5729E-02   max: -.5291E-01   D at   56  1
       a = 13.000      CL =  1.6128
      Cm = -0.0834     CD =  0.03686   =>   CDf =  0.00635    CDp =  0.03051

 Side 1  free  transition at x/c =  0.0237   54
 Side 2 forced transition at x/c =  1.0000  120

   4   rms: 0.6303E-03   max: -.6086E-02   C at   54  1
       a = 13.000      CL =  1.6125
      Cm = -0.0834     CD =  0.03683   =>   CDf =  0.00635    CDp =  0.03048

 Side 1  free  transition at x/c =  0.0237   54
 Side 2 forced transition at x/c =  1.0000  120

   5   rms: 0.2484E-04   max: 0.4041E-03   D at  141  2
       a = 13.000      CL =  1.6125
      Cm = -0.0834     CD =  0.03682   =>   CDf =  0.00635    CDp =  0.03047
 plradd ia,ip,cpol           18         181  1.24708074E-03

 Point added to stored polar  1
 Save file unspecified or not available
 Dump file unspecified or not available

.OPERva   c>  
.OPERva   c>  
.OPERva   c>   Calculating wake trajectory ...
 Array size (IWX) too small.  Last wake point index reduced.
 Calculating source influence matrix ...

 Solving BL system ...

 Side 1  free  transition at x/c =  0.0237   54
 Side 2 forced transition at x/c =  1.0000  120

   1   rms: 0.1346E+00   max: 0.8091E+00   T at   54  1   RLX: 0.653
       a = 14.000      CL =  1.6468
      Cm = -0.0806     CD =  0.04077   =>   CDf =  0.00617    CDp =  0.03460

 Side 1  free  transition at x/c =  0.0209   54
 Side 2 forced transition at x/c =  1.0000  119

   2   rms: 0.4671E-01   max: -.2488E+00   D at   55  1
       a = 14.000      CL =  1.6413
      Cm = -0.0781     CD =  0.04469   =>   CDf =  0.00622    CDp =  0.03847

 Side 1  free  transition at x/c =  0.0204   54
 Side 2 forced transition at x/c =  1.0000  119

   3   rms: 0.6955E-02   max: 0.6569E-01   D at  148  1
       a = 14.000      CL =  1.6365
      Cm = -0.0776     CD =  0.04450   =>   CDf =  0.00608    CDp =  0.03842

 Side 1  free  transition at x/c =  0.0205   54
 Side 2 forced transition at x/c =  1.0000  119

   4   rms: 0.7509E-03   max: 0.9600E-02   D at  141  2
       a = 14.000      CL =  1.6360
      Cm = -0.0776     CD =  0.04443   =>   CDf =  0.00607    CDp =  0.03836

 Side 1  free  transition at x/c =  0.0205   54
 Side 2 forced transition at x/c =  1.0000  119

   5   rms: 0.3371E-04   max: 0.2969E-03   D at  142  2
       a = 14.000      CL =  1.6359
      Cm = -0.0776     CD =  0.04442   =>   CDf =  0.00607    CDp =  0.03835
 plradd ia,ip,cpol           19         182  8.75403581E-04

 Point added to stored polar  1
 Save file unspecified or not available
 Dump file unspecified or not available

.OPERva   c>  
.OPERva   c>  
.OPERva   c>   Calculating wake trajectory ...
 Array size (IWX) too small.  Last wake point index reduced.
 Calculating source influence matrix ...

 Solving BL system ...

 Side 1  free  transition at x/c =  0.0205   54
 Side 2 forced transition at x/c =  1.0000  119

   1   rms: 0.1311E+00   max: 0.6100E+00   T at   54  1   RLX: 0.585
       a = 15.000      CL =  1.6569
      Cm = -0.0755     CD =  0.04967   =>   CDf =  0.00588    CDp =  0.04379

 Side 1  free  transition at x/c =  0.0189   54
 Side 2 forced transition at x/c =  1.0000  118

   2   rms: 0.5382E-01   max: 0.2584E+00   D at  145  1
       a = 15.000      CL =  1.6575
      Cm = -0.0737     CD =  0.05432   =>   CDf =  0.00573    CDp =  0.04859

 Side 1  free  transition at x/c =  0.0180   55
 Side 2 forced transition at x/c =  1.0000  117
 idif Ue xi dudx           1  4.56405059E-02  3.34775448E-03   13.633170    
 Uenew xinew           2  7.47592247E-04  5.48362732E-05

   3   rms: 0.9898E-01   max: -.2339E+01   T at    2  1   RLX: 0.214
       a = 15.000      CL =  1.6576
      Cm = -0.0751     CD =  0.05312   =>   CDf =  0.00601    CDp =  0.04711

 Side 1  free  transition at x/c =  0.0180   54
 Side 2 forced transition at x/c =  1.0000  118

   4   rms: 0.1816E-01   max: -.3315E+00   T at    2  2
       a = 15.000      CL =  1.6479
      Cm = -0.0732     CD =  0.05424   =>   CDf =  0.00579    CDp =  0.04844

 Side 1  free  transition at x/c =  0.0182   54
 Side 2 forced transition at x/c =  1.0000  118

   5   rms: 0.1256E-02   max: -.1506E-01   D at    4  2
       a = 15.000      CL =  1.6472
      Cm = -0.0731     CD =  0.05408   =>   CDf =  0.00577    CDp =  0.04831

 Side 1  free  transition at x/c =  0.0182   54
 Side 2 forced transition at x/c =  1.0000  118

   6   rms: 0.5175E-04   max: 0.3177E-03   C at  118  2
       a = 15.000      CL =  1.6472
      Cm = -0.0731     CD =  0.05407   =>   CDf =  0.00577    CDp =  0.04830
 plradd ia,ip,cpol           20         183  8.75403581E-04

 Point added to stored polar  1
 Save file unspecified or not available
 Dump file unspecified or not available

.OPERva   c>  
.OPERva   c>  
.OPERva   c>   Calculating wake trajectory ...
 Array size (IWX) too small.  Last wake point index reduced.
 Calculating source influence matrix ...

 Solving BL system ...

 Side 1  free  transition at x/c =  0.0182   54
 Side 2 forced transition at x/c =  1.0000  118

   1   rms: 0.1293E+00   max: 0.5937E+00   T at   54  1   RLX: 0.513
       a = 16.000      CL =  1.6604
      Cm = -0.0720     CD =  0.06006   =>   CDf =  0.00557    CDp =  0.05450

 Side 1  free  transition at x/c =  0.0173   54
 Side 2 forced transition at x/c =  1.0000  117

   2   rms: 0.6341E-01   max: 0.2876E+00   D at  139  1
       a = 16.000      CL =  1.6609
      Cm = -0.0709     CD =  0.06645   =>   CDf =  0.00543    CDp =  0.06102

 Side 1  free  transition at x/c =  0.0163   55
 Side 2 forced transition at x/c =  1.0000  116
 idif Ue xi dudx           1  5.07483222E-02  3.86631489E-03   13.125760    
 Uenew xinew           2  4.16995911E-03  3.17692757E-04

   3   rms: 0.2300E-01   max: -.2395E+00   T at    2  1
       a = 16.000      CL =  1.6472
      Cm = -0.0706     CD =  0.06654   =>   CDf =  0.00569    CDp =  0.06085

 Side 1  free  transition at x/c =  0.0166   54
 Side 2 forced transition at x/c =  1.0000  117

   4   rms: 0.2639E-02   max: 0.2111E-01   D at  142  2
       a = 16.000      CL =  1.6457
      Cm = -0.0703     CD =  0.06611   =>   CDf =  0.00542    CDp =  0.06069

 Side 1  free  transition at x/c =  0.0166   54
 Side 2 forced transition at x/c =  1.0000  117

   5   rms: 0.2906E-03   max: 0.3074E-02   D at    4  2
       a = 16.000      CL =  1.6458
      Cm = -0.0703     CD =  0.06607   =>   CDf =  0.00542    CDp =  0.06064

 Side 1  free  transition at x/c =  0.0166   54
 Side 2 forced transition at x/c =  1.0000  117

   6   rms: 0.4796E-04   max: -.2667E-03   D at  142  2
       a = 16.000      CL =  1.6458
      Cm = -0.0703     CD =  0.06607   =>   CDf =  0.00542    CDp =  0.06065
 plradd ia,ip,cpol           21         184  5.70419768E-04

 Point added to stored polar  1
 Save file unspecified or not available
 Dump file unspecified or not available

.OPERva   c>  
.OPERva   c>  
.OPERva   c>   Calculating wake trajectory ...
 Array size (IWX) too small.  Last wake point index reduced.
 Calculating source influence matrix ...

 Solving BL system ...

 Side 1  free  transition at x/c =  0.0166   54
 Side 2 forced transition at x/c =  1.0000  117

   1   rms: 0.1252E+00   max: 0.5012E+00   T at   54  1   RLX: 0.454
       a = 17.000      CL =  1.6548
      Cm = -0.0702     CD =  0.07246   =>   CDf =  0.00521    CDp =  0.06725

 Side 1  free  transition at x/c =  0.0158   54
 Side 2 forced transition at x/c =  1.0000  116

   2   rms: 0.6756E-01   max: 0.3052E+00   D at  133  1
       a = 17.000      CL =  1.6553
      Cm = -0.0704     CD =  0.08071   =>   CDf =  0.00535    CDp =  0.07536

 Side 1  free  transition at x/c =  0.0150   54
 Side 2 forced transition at x/c =  1.0000  116

   3   rms: 0.2670E-01   max: 0.1477E+00   D at  130  1
       a = 17.000      CL =  1.6358
      Cm = -0.0701     CD =  0.08137   =>   CDf =  0.00509    CDp =  0.07627

 Side 1  free  transition at x/c =  0.0153   54
 Side 2 forced transition at x/c =  1.0000  116

   4   rms: 0.3901E-02   max: 0.4389E-01   D at  142  2
       a = 17.000      CL =  1.6332
      Cm = -0.0697     CD =  0.08058   =>   CDf =  0.00506    CDp =  0.07552

 Side 1  free  transition at x/c =  0.0153   54
 Side 2 forced transition at x/c =  1.0000  116

   5   rms: 0.2693E-03   max: 0.2954E-02   D at  143  2
       a = 17.000      CL =  1.6329
      Cm = -0.0697     CD =  0.08046   =>   CDf =  0.00506    CDp =  0.07540

 Side 1  free  transition at x/c =  0.0153   54
 Side 2 forced transition at x/c =  1.0000  116

   6   rms: 0.1615E-04   max: 0.8498E-04   C at  116  2
       a = 17.000      CL =  1.6329
      Cm = -0.0697     CD =  0.08045   =>   CDf =  0.00506    CDp =  0.07540
 plradd ia,ip,cpol           22         185  5.70419768E-04

 Point added to stored polar  1
 Save file unspecified or not available
 Dump file unspecified or not available

.OPERva   c>  
.OPERva   c>  
.OPERva   c>   Calculating wake trajectory ...
 Array size (IWX) too small.  Last wake point index reduced.
 Calculating source influence matrix ...

 Solving BL system ...

 Side 1  free  transition at x/c =  0.0153   54
 Side 2 forced transition at x/c =  1.0000  116

   1   rms: 0.1218E+00   max: 0.4662E+00   T at   54  1   RLX: 0.404
       a = 18.000      CL =  1.6406
      Cm = -0.0705     CD =  0.08720   =>   CDf =  0.00484    CDp =  0.08236

 Side 1  free  transition at x/c =  0.0147   55
 Side 2 forced transition at x/c =  1.0000  115

   2   rms: 0.7678E-01   max: 0.3448E+00   D at  127  1
       a = 18.000      CL =  1.6377
      Cm = -0.0722     CD =  0.09858   =>   CDf =  0.00495    CDp =  0.09364

 Side 1  free  transition at x/c =  0.0142   54
 Side 2 forced transition at x/c =  1.0000  115

   3   rms: 0.3435E-01   max: 0.1880E+00   D at  124  1
       a = 18.000      CL =  1.6139
      Cm = -0.0722     CD =  0.09917   =>   CDf =  0.00478    CDp =  0.09438

 Side 1  free  transition at x/c =  0.0144   55
 Side 2 forced transition at x/c =  1.0000  115

   4   rms: 0.8398E-02   max: 0.1369E+00   D at   55  1
       a = 18.000      CL =  1.6142
      Cm = -0.0715     CD =  0.09699   =>   CDf =  0.00470    CDp =  0.09229

 Side 1  free  transition at x/c =  0.0144   55
 Side 2 forced transition at x/c =  1.0000  115

   5   rms: 0.1375E-02   max: 0.8816E-02   D at   55  1
       a = 18.000      CL =  1.6134
      Cm = -0.0715     CD =  0.09678   =>   CDf =  0.00471    CDp =  0.09207

 Side 1  free  transition at x/c =  0.0144   55
 Side 2 forced transition at x/c =  1.0000  115

   6   rms: 0.3672E-03   max: 0.1728E-02   D at  143  2
       a = 18.000      CL =  1.6131
      Cm = -0.0714     CD =  0.09675   =>   CDf =  0.00471    CDp =  0.09204

 Side 1  free  transition at x/c =  0.0144   55
 Side 2 forced transition at x/c =  1.0000  115

   7   rms: 0.7482E-04   max: 0.5085E-03   D at  142  2
       a = 18.000      CL =  1.6131
      Cm = -0.0714     CD =  0.09673   =>   CDf =  0.00471    CDp =  0.09202
 plradd ia,ip,cpol           23         186  5.70419768E-04

 Point added to stored polar  1
 Save file unspecified or not available
 Dump file unspecified or not available

.OPERva   c>  
.OPERva   c>  
.OPERva   c>   Calculating wake trajectory ...
 Array size (IWX) too small.  Last wake point index reduced.
 Calculating source influence matrix ...

 Solving BL system ...

 Side 1  free  transition at x/c =  0.0144   55
 Side 2 forced transition at x/c =  1.0000  115

   1   rms: 0.1277E+00   max: 0.5277E+00   D at  118  1   RLX: 0.358
       a = 19.000      CL =  1.6134
      Cm = -0.0732     CD =  0.10476   =>   CDf =  0.00472    CDp =  0.10004

 Side 1  free  transition at x/c =  0.0141   54
 Side 2 forced transition at x/c =  1.0000  115

   2   rms: 0.8034E-01   max: 0.3439E+00   D at  120  1
       a = 19.000      CL =  1.6163
      Cm = -0.0759     CD =  0.11709   =>   CDf =  0.00437    CDp =  0.11272

 Side 1  free  transition at x/c =  0.0131   55
 Side 2 forced transition at x/c =  1.0000  114

   3   rms: 0.3626E-01   max: 0.1814E+00   D at  118  1
       a = 19.000      CL =  1.5935
      Cm = -0.0765     CD =  0.11703   =>   CDf =  0.00435    CDp =  0.11268

 Side 1  free  transition at x/c =  0.0134   55
 Side 2 forced transition at x/c =  1.0000  114

   4   rms: 0.6415E-02   max: 0.4085E-01   D at  143  2
       a = 19.000      CL =  1.5897
      Cm = -0.0759     CD =  0.11478   =>   CDf =  0.00428    CDp =  0.11049

 Side 1  free  transition at x/c =  0.0135   55
 Side 2 forced transition at x/c =  1.0000  114

   5   rms: 0.8665E-03   max: 0.6098E-02   D at  143  2
       a = 19.000      CL =  1.5898
      Cm = -0.0758     CD =  0.11422   =>   CDf =  0.00428    CDp =  0.10994

 Side 1  free  transition at x/c =  0.0135   55
 Side 2 forced transition at x/c =  1.0000  114

   6   rms: 0.3196E-03   max: 0.1677E-02   C at  114  2
       a = 19.000      CL =  1.5901
      Cm = -0.0758     CD =  0.11425   =>   CDf =  0.00428    CDp =  0.10996

 Side 1  free  transition at x/c =  0.0135   55
 Side 2 forced transition at x/c =  1.0000  114

   7   rms: 0.7781E-04   max: -.5098E-03   D at  143  2
       a = 19.000      CL =  1.5901
      Cm = -0.0758     CD =  0.11427   =>   CDf =  0.00428    CDp =  0.10998
 plradd ia,ip,cpol           24         187  5.70419768E-04

 Point added to stored polar  1
 Save file unspecified or not available
 Dump file unspecified or not available

.OPERva   c>  
.OPERva   c>  
.OPERva   c>   Calculating wake trajectory ...
 Array size (IWX) too small.  Last wake point index reduced.
 Calculating source influence matrix ...

 Solving BL system ...

 Side 1  free  transition at x/c =  0.0135   55
 Side 2 forced transition at x/c =  1.0000  114

   1   rms: 0.1165E+00   max: 0.4636E+00   D at  112  1   RLX: 0.327
       a = 20.000      CL =  1.5943
      Cm = -0.0779     CD =  0.12127   =>   CDf =  0.00430    CDp =  0.11697

 Side 1  free  transition at x/c =  0.0131   55
 Side 2 forced transition at x/c =  1.0000  114

   2   rms: 0.8106E-01   max: 0.3620E+00   D at  114  1
       a = 20.000      CL =  1.5963
      Cm = -0.0830     CD =  0.13689   =>   CDf =  0.00421    CDp =  0.13268

 Side 1  free  transition at x/c =  0.0126   54
 Side 2 forced transition at x/c =  1.0000  114

   3   rms: 0.3527E-01   max: -.2091E+00   C at  114  2
       a = 20.000      CL =  1.5748
      Cm = -0.0834     CD =  0.13591   =>   CDf =  0.00403    CDp =  0.13188

 Side 1  free  transition at x/c =  0.0127   55
 Side 2 forced transition at x/c =  1.0000  114

   4   rms: 0.8385E-02   max: 0.5198E-01   D at  144  2
       a = 20.000      CL =  1.5699
      Cm = -0.0830     CD =  0.13303   =>   CDf =  0.00402    CDp =  0.12901

 Side 1  free  transition at x/c =  0.0128   55
 Side 2 forced transition at x/c =  1.0000  114

   5   rms: 0.1104E-02   max: 0.1101E-01   D at  144  2
       a = 20.000      CL =  1.5694
      Cm = -0.0828     CD =  0.13218   =>   CDf =  0.00399    CDp =  0.12818

 Side 1  free  transition at x/c =  0.0128   55
 Side 2 forced transition at x/c =  1.0000  114

   6   rms: 0.1233E-03   max: 0.1668E-02   D at  144  2
       a = 20.000      CL =  1.5694
      Cm = -0.0828     CD =  0.13211   =>   CDf =  0.00400    CDp =  0.12811

 Side 1  free  transition at x/c =  0.0128   55
 Side 2 forced transition at x/c =  1.0000  114

   7   rms: 0.3148E-04   max: -.2662E-03   D at  143  2
       a = 20.000      CL =  1.5694
      Cm = -0.0828     CD =  0.13213   =>   CDf =  0.00400    CDp =  0.12813
 plradd ia,ip,cpol           25         187  3.31608608E-04

 Point added to stored polar  1
 Save file unspecified or not available
 Dump file unspecified or not available

.OPERva   c>  
.OPERva   c>  
.OPERva   c>  
        airfoil                    Re           Mach       Ncrit  XtripT  XtripB     file
       ------------------------  ------------  ----------  -----  ------  ------    -------------------
 >  1  NACA 5512                 8.446e5       0.146        9.00   1.000   1.000    

Enter polar output filename   s>  
.OPERva   c>  
 ==============================================================
 Polar  1
  
       XFOIL         Version 6.99
  
 Calculated polar for: NACA 5512                                       
  
 1 1 Reynolds number fixed          Mach number fixed         
  
 xtrf =   1.000 (top)        1.000 (bottom)  
 Mach =   0.146     Re =     0.845 e 6     Ncrit =   9.000
  
   alpha    CL        CD       CDp       CM     Top_Xtr  Bot_Xtr
  ------ -------- --------- --------- -------- -------- --------
  -5.000   0.0837   0.00886   0.00320  -0.1546   0.8564   0.0537
  -4.000   0.1990   0.00819   0.00248  -0.1549   0.8340   0.0773
  -3.000   0.3142   0.00766   0.00200  -0.1552   0.8099   0.1213
  -2.000   0.4289   0.00728   0.00174  -0.1555   0.7836   0.1916
  -1.000   0.5431   0.00703   0.00164  -0.1557   0.7553   0.2844
   0.000   0.6562   0.00688   0.00170  -0.1557   0.7251   0.3983
   1.000   0.7679   0.00677   0.00189  -0.1554   0.6923   0.5559
   2.000   0.8726   0.00620   0.00220  -0.1532   0.6564   1.0000
   3.000   0.9811   0.00671   0.00252  -0.1522   0.6164   1.0000
   4.000   1.0862   0.00734   0.00298  -0.1505   0.5673   1.0000
   5.000   1.1837   0.00829   0.00365  -0.1473   0.4969   1.0000
   6.000   1.2742   0.00956   0.00460  -0.1430   0.4133   1.0000
   8.000   1.3978   0.01453   0.00838  -0.1250   0.1727   1.0000
   9.000   1.4440   0.01804   0.01142  -0.1146   0.0849   1.0000
  10.000   1.4942   0.02160   0.01484  -0.1059   0.0498   1.0000
  11.000   1.5427   0.02558   0.01888  -0.0980   0.0356   1.0000
  12.000   1.5828   0.03053   0.02398  -0.0904   0.0282   1.0000
  13.000   1.6125   0.03682   0.03047  -0.0834   0.0237   1.0000
  14.000   1.6359   0.04442   0.03835  -0.0776   0.0205   1.0000
  15.000   1.6472   0.05407   0.04830  -0.0731   0.0182   1.0000
  16.000   1.6458   0.06607   0.06065  -0.0703   0.0166   1.0000
  17.000   1.6329   0.08045   0.07540  -0.0697   0.0153   1.0000
  18.000   1.6131   0.09673   0.09202  -0.0714   0.0144   1.0000
  19.000   1.5901   0.11427   0.10998  -0.0758   0.0135   1.0000
  20.000   1.5694   0.13213   0.12813  -0.0828   0.0128   1.0000

.OPERva   c>  
 XFOIL   c>  